* NGSPICE file created from opamp290.ext - technology: sky130A

.subckt opamp290 gnd CSoutput output vdd plus minus commonsourceibias outputibias
+ diffpairibias
X0 a_n2140_13878.t21 a_n2848_n452.t37 a_n2848_n452.t38 vdd.t178 sky130_fd_pr__pfet_01v8 ad=1.485 pd=9.33 as=1.485 ps=9.33 w=9 l=0.5
X1 CSoutput.t58 a_n6308_8799.t40 vdd.t91 vdd.t90 sky130_fd_pr__pfet_01v8 ad=1.32 pd=8.33 as=1.32 ps=8.33 w=8 l=0.5
X2 a_n2140_13878.t23 a_n2848_n452.t56 vdd.t189 vdd.t188 sky130_fd_pr__pfet_01v8 ad=1.485 pd=9.33 as=1.485 ps=9.33 w=9 l=0.5
X3 vdd.t75 vdd.t73 vdd.t74 vdd.t5 sky130_fd_pr__pfet_01v8 ad=3.12 pd=16.78 as=0 ps=0 w=8 l=0.5
X4 CSoutput.t114 commonsourceibias.t48 gnd.t265 gnd.t214 sky130_fd_pr__nfet_01v8 ad=1.155 pd=7.33 as=1.155 ps=7.33 w=7 l=1
X5 CSoutput.t59 commonsourceibias.t49 gnd.t264 gnd.t146 sky130_fd_pr__nfet_01v8 ad=1.155 pd=7.33 as=1.155 ps=7.33 w=7 l=1
X6 a_n6308_8799.t16 plus.t5 a_n3106_n452.t24 gnd.t270 sky130_fd_pr__nfet_01v8 ad=1.155 pd=7.33 as=1.155 ps=7.33 w=7 l=0.9
X7 gnd.t263 commonsourceibias.t50 CSoutput.t103 gnd.t207 sky130_fd_pr__nfet_01v8 ad=1.155 pd=7.33 as=1.155 ps=7.33 w=7 l=1
X8 CSoutput.t77 commonsourceibias.t51 gnd.t262 gnd.t187 sky130_fd_pr__nfet_01v8 ad=1.155 pd=7.33 as=1.155 ps=7.33 w=7 l=1
X9 CSoutput.t57 a_n6308_8799.t41 vdd.t93 vdd.t92 sky130_fd_pr__pfet_01v8 ad=1.32 pd=8.33 as=1.32 ps=8.33 w=8 l=0.5
X10 a_n3106_n452.t23 plus.t6 a_n6308_8799.t12 gnd.t291 sky130_fd_pr__nfet_01v8 ad=1.155 pd=7.33 as=1.155 ps=7.33 w=7 l=0.9
X11 output.t3 outputibias.t8 gnd.t15 gnd.t14 sky130_fd_pr__nfet_01v8 ad=2.34 pd=12.78 as=2.34 ps=12.78 w=6 l=2
X12 a_n2318_8322.t27 a_n2848_n452.t57 a_n6308_8799.t21 vdd.t187 sky130_fd_pr__pfet_01v8 ad=1.485 pd=9.33 as=1.485 ps=9.33 w=9 l=0.5
X13 vdd.t99 CSoutput.t120 output.t19 gnd.t309 sky130_fd_pr__nfet_01v8 ad=0.825 pd=5.33 as=0.825 ps=5.33 w=5 l=1
X14 gnd.t261 commonsourceibias.t52 CSoutput.t85 gnd.t170 sky130_fd_pr__nfet_01v8 ad=2.73 pd=14.78 as=1.155 ps=7.33 w=7 l=1
X15 CSoutput.t108 commonsourceibias.t53 gnd.t260 gnd.t205 sky130_fd_pr__nfet_01v8 ad=1.155 pd=7.33 as=1.155 ps=7.33 w=7 l=1
X16 gnd.t259 commonsourceibias.t54 CSoutput.t2 gnd.t159 sky130_fd_pr__nfet_01v8 ad=2.73 pd=14.78 as=1.155 ps=7.33 w=7 l=1
X17 CSoutput.t94 commonsourceibias.t55 gnd.t258 gnd.t205 sky130_fd_pr__nfet_01v8 ad=1.155 pd=7.33 as=1.155 ps=7.33 w=7 l=1
X18 gnd.t139 gnd.t136 gnd.t138 gnd.t137 sky130_fd_pr__nfet_01v8 ad=2.34 pd=12.78 as=0 ps=0 w=6 l=2
X19 CSoutput.t80 commonsourceibias.t56 gnd.t257 gnd.t219 sky130_fd_pr__nfet_01v8 ad=1.155 pd=7.33 as=1.155 ps=7.33 w=7 l=1
X20 a_n6308_8799.t29 a_n2848_n452.t58 a_n2318_8322.t26 vdd.t176 sky130_fd_pr__pfet_01v8 ad=1.485 pd=9.33 as=3.51 ps=18.78 w=9 l=0.5
X21 CSoutput.t95 commonsourceibias.t57 gnd.t256 gnd.t146 sky130_fd_pr__nfet_01v8 ad=1.155 pd=7.33 as=1.155 ps=7.33 w=7 l=1
X22 a_n2848_n452.t9 minus.t5 a_n3106_n452.t33 gnd.t16 sky130_fd_pr__nfet_01v8 ad=1.155 pd=7.33 as=1.155 ps=7.33 w=7 l=0.9
X23 a_n6308_8799.t2 plus.t7 a_n3106_n452.t22 gnd.t0 sky130_fd_pr__nfet_01v8 ad=1.155 pd=7.33 as=1.155 ps=7.33 w=7 l=0.9
X24 CSoutput.t56 a_n6308_8799.t42 vdd.t110 vdd.t107 sky130_fd_pr__pfet_01v8 ad=1.32 pd=8.33 as=1.32 ps=8.33 w=8 l=0.5
X25 vdd.t111 a_n6308_8799.t43 CSoutput.t55 vdd.t103 sky130_fd_pr__pfet_01v8 ad=1.32 pd=8.33 as=1.32 ps=8.33 w=8 l=0.5
X26 plus.t4 gnd.t133 gnd.t135 gnd.t134 sky130_fd_pr__nfet_01v8 ad=0.165 pd=1.33 as=0.165 ps=1.33 w=1 l=0.5
X27 a_n2848_n452.t12 minus.t6 a_n3106_n452.t36 gnd.t19 sky130_fd_pr__nfet_01v8 ad=1.155 pd=7.33 as=1.155 ps=7.33 w=7 l=0.9
X28 a_n6308_8799.t25 a_n2848_n452.t59 a_n2318_8322.t25 vdd.t143 sky130_fd_pr__pfet_01v8 ad=1.485 pd=9.33 as=3.51 ps=18.78 w=9 l=0.5
X29 vdd.t72 vdd.t70 vdd.t71 vdd.t5 sky130_fd_pr__pfet_01v8 ad=3.12 pd=16.78 as=0 ps=0 w=8 l=0.5
X30 gnd.t255 commonsourceibias.t58 CSoutput.t96 gnd.t198 sky130_fd_pr__nfet_01v8 ad=1.155 pd=7.33 as=1.155 ps=7.33 w=7 l=1
X31 CSoutput.t73 commonsourceibias.t59 gnd.t254 gnd.t178 sky130_fd_pr__nfet_01v8 ad=1.155 pd=7.33 as=1.155 ps=7.33 w=7 l=1
X32 CSoutput.t66 commonsourceibias.t60 gnd.t253 gnd.t214 sky130_fd_pr__nfet_01v8 ad=1.155 pd=7.33 as=1.155 ps=7.33 w=7 l=1
X33 gnd.t132 gnd.t130 gnd.t131 gnd.t62 sky130_fd_pr__nfet_01v8 ad=2.73 pd=14.78 as=0 ps=0 w=7 l=1
X34 CSoutput.t121 a_n2318_8322.t0 sky130_fd_pr__cap_mim_m3_1 l=12 w=12
X35 vdd.t69 vdd.t67 vdd.t68 vdd.t9 sky130_fd_pr__pfet_01v8 ad=3.51 pd=18.78 as=0 ps=0 w=9 l=0.5
X36 CSoutput.t54 a_n6308_8799.t44 vdd.t194 vdd.t90 sky130_fd_pr__pfet_01v8 ad=1.32 pd=8.33 as=1.32 ps=8.33 w=8 l=0.5
X37 a_n3106_n452.t21 plus.t8 a_n6308_8799.t8 gnd.t286 sky130_fd_pr__nfet_01v8 ad=1.155 pd=7.33 as=1.155 ps=7.33 w=7 l=0.9
X38 CSoutput.t118 commonsourceibias.t61 gnd.t252 gnd.t194 sky130_fd_pr__nfet_01v8 ad=1.155 pd=7.33 as=1.155 ps=7.33 w=7 l=1
X39 CSoutput.t53 a_n6308_8799.t45 vdd.t195 vdd.t116 sky130_fd_pr__pfet_01v8 ad=1.32 pd=8.33 as=3.12 ps=16.78 w=8 l=0.5
X40 a_n3106_n452.t49 minus.t7 a_n2848_n452.t20 gnd.t1 sky130_fd_pr__nfet_01v8 ad=1.155 pd=7.33 as=1.155 ps=7.33 w=7 l=0.9
X41 gnd.t251 commonsourceibias.t62 CSoutput.t62 gnd.t176 sky130_fd_pr__nfet_01v8 ad=1.155 pd=7.33 as=1.155 ps=7.33 w=7 l=1
X42 a_n3106_n452.t55 diffpairibias.t16 gnd.t323 gnd.t322 sky130_fd_pr__nfet_01v8 ad=2.73 pd=14.78 as=2.73 ps=14.78 w=7 l=1
X43 CSoutput.t67 commonsourceibias.t63 gnd.t250 gnd.t163 sky130_fd_pr__nfet_01v8 ad=1.155 pd=7.33 as=2.73 ps=14.78 w=7 l=1
X44 gnd.t249 commonsourceibias.t6 commonsourceibias.t7 gnd.t173 sky130_fd_pr__nfet_01v8 ad=1.155 pd=7.33 as=1.155 ps=7.33 w=7 l=1
X45 gnd.t129 gnd.t126 gnd.t128 gnd.t127 sky130_fd_pr__nfet_01v8 ad=2.34 pd=12.78 as=0 ps=0 w=6 l=2
X46 CSoutput.t52 a_n6308_8799.t46 vdd.t124 vdd.t92 sky130_fd_pr__pfet_01v8 ad=1.32 pd=8.33 as=1.32 ps=8.33 w=8 l=0.5
X47 CSoutput.t88 commonsourceibias.t64 gnd.t248 gnd.t194 sky130_fd_pr__nfet_01v8 ad=1.155 pd=7.33 as=1.155 ps=7.33 w=7 l=1
X48 a_n2140_13878.t20 a_n2848_n452.t53 a_n2848_n452.t54 vdd.t151 sky130_fd_pr__pfet_01v8 ad=1.485 pd=9.33 as=1.485 ps=9.33 w=9 l=0.5
X49 a_n2848_n452.t42 a_n2848_n452.t41 a_n2140_13878.t19 vdd.t161 sky130_fd_pr__pfet_01v8 ad=1.485 pd=9.33 as=1.485 ps=9.33 w=9 l=0.5
X50 CSoutput.t87 commonsourceibias.t65 gnd.t247 gnd.t148 sky130_fd_pr__nfet_01v8 ad=1.155 pd=7.33 as=1.155 ps=7.33 w=7 l=1
X51 gnd.t125 gnd.t123 gnd.t124 gnd.t58 sky130_fd_pr__nfet_01v8 ad=2.73 pd=14.78 as=0 ps=0 w=7 l=0.9
X52 outputibias.t7 outputibias.t6 gnd.t141 gnd.t140 sky130_fd_pr__nfet_01v8 ad=2.34 pd=12.78 as=2.34 ps=12.78 w=6 l=2
X53 gnd.t246 commonsourceibias.t66 CSoutput.t90 gnd.t207 sky130_fd_pr__nfet_01v8 ad=1.155 pd=7.33 as=1.155 ps=7.33 w=7 l=1
X54 vdd.t66 vdd.t64 vdd.t65 vdd.t47 sky130_fd_pr__pfet_01v8 ad=3.51 pd=18.78 as=0 ps=0 w=9 l=0.5
X55 CSoutput.t117 commonsourceibias.t67 gnd.t245 gnd.t148 sky130_fd_pr__nfet_01v8 ad=1.155 pd=7.33 as=1.155 ps=7.33 w=7 l=1
X56 a_n3106_n452.t20 plus.t9 a_n6308_8799.t13 gnd.t18 sky130_fd_pr__nfet_01v8 ad=1.155 pd=7.33 as=1.155 ps=7.33 w=7 l=0.9
X57 gnd.t122 gnd.t120 gnd.t121 gnd.t62 sky130_fd_pr__nfet_01v8 ad=2.73 pd=14.78 as=0 ps=0 w=7 l=1
X58 CSoutput.t9 commonsourceibias.t68 gnd.t244 gnd.t205 sky130_fd_pr__nfet_01v8 ad=1.155 pd=7.33 as=1.155 ps=7.33 w=7 l=1
X59 gnd.t217 commonsourceibias.t18 commonsourceibias.t19 gnd.t150 sky130_fd_pr__nfet_01v8 ad=1.155 pd=7.33 as=1.155 ps=7.33 w=7 l=1
X60 gnd.t119 gnd.t117 gnd.t118 gnd.t38 sky130_fd_pr__nfet_01v8 ad=2.73 pd=14.78 as=0 ps=0 w=7 l=1
X61 a_n3106_n452.t19 plus.t10 a_n6308_8799.t19 gnd.t12 sky130_fd_pr__nfet_01v8 ad=1.155 pd=7.33 as=1.155 ps=7.33 w=7 l=0.9
X62 a_n3106_n452.t29 minus.t8 a_n2848_n452.t5 gnd.t10 sky130_fd_pr__nfet_01v8 ad=2.73 pd=14.78 as=1.155 ps=7.33 w=7 l=0.9
X63 diffpairibias.t15 diffpairibias.t14 gnd.t293 gnd.t292 sky130_fd_pr__nfet_01v8 ad=2.73 pd=14.78 as=2.73 ps=14.78 w=7 l=1
X64 CSoutput.t3 commonsourceibias.t69 gnd.t243 gnd.t192 sky130_fd_pr__nfet_01v8 ad=1.155 pd=7.33 as=2.73 ps=14.78 w=7 l=1
X65 CSoutput.t4 commonsourceibias.t70 gnd.t242 gnd.t163 sky130_fd_pr__nfet_01v8 ad=1.155 pd=7.33 as=2.73 ps=14.78 w=7 l=1
X66 a_n6308_8799.t23 a_n2848_n452.t60 a_n2318_8322.t24 vdd.t169 sky130_fd_pr__pfet_01v8 ad=1.485 pd=9.33 as=1.485 ps=9.33 w=9 l=0.5
X67 gnd.t241 commonsourceibias.t71 CSoutput.t112 gnd.t181 sky130_fd_pr__nfet_01v8 ad=1.155 pd=7.33 as=1.155 ps=7.33 w=7 l=1
X68 gnd.t240 commonsourceibias.t72 CSoutput.t78 gnd.t157 sky130_fd_pr__nfet_01v8 ad=1.155 pd=7.33 as=1.155 ps=7.33 w=7 l=1
X69 CSoutput.t119 commonsourceibias.t73 gnd.t239 gnd.t192 sky130_fd_pr__nfet_01v8 ad=1.155 pd=7.33 as=2.73 ps=14.78 w=7 l=1
X70 diffpairibias.t13 diffpairibias.t12 gnd.t290 gnd.t289 sky130_fd_pr__nfet_01v8 ad=2.73 pd=14.78 as=2.73 ps=14.78 w=7 l=1
X71 gnd.t238 commonsourceibias.t8 commonsourceibias.t9 gnd.t183 sky130_fd_pr__nfet_01v8 ad=1.155 pd=7.33 as=1.155 ps=7.33 w=7 l=1
X72 CSoutput.t84 commonsourceibias.t74 gnd.t237 gnd.t168 sky130_fd_pr__nfet_01v8 ad=1.155 pd=7.33 as=1.155 ps=7.33 w=7 l=1
X73 output.t18 CSoutput.t122 vdd.t79 gnd.t308 sky130_fd_pr__nfet_01v8 ad=0.825 pd=5.33 as=0.825 ps=5.33 w=5 l=1
X74 gnd.t236 commonsourceibias.t75 CSoutput.t91 gnd.t183 sky130_fd_pr__nfet_01v8 ad=1.155 pd=7.33 as=1.155 ps=7.33 w=7 l=1
X75 CSoutput.t89 commonsourceibias.t76 gnd.t235 gnd.t219 sky130_fd_pr__nfet_01v8 ad=1.155 pd=7.33 as=1.155 ps=7.33 w=7 l=1
X76 CSoutput.t51 a_n6308_8799.t47 vdd.t125 vdd.t84 sky130_fd_pr__pfet_01v8 ad=1.32 pd=8.33 as=1.32 ps=8.33 w=8 l=0.5
X77 vdd.t83 a_n6308_8799.t48 CSoutput.t50 vdd.t82 sky130_fd_pr__pfet_01v8 ad=1.32 pd=8.33 as=1.32 ps=8.33 w=8 l=0.5
X78 gnd.t234 commonsourceibias.t77 CSoutput.t10 gnd.t198 sky130_fd_pr__nfet_01v8 ad=1.155 pd=7.33 as=1.155 ps=7.33 w=7 l=1
X79 CSoutput.t49 a_n6308_8799.t49 vdd.t85 vdd.t84 sky130_fd_pr__pfet_01v8 ad=1.32 pd=8.33 as=1.32 ps=8.33 w=8 l=0.5
X80 CSoutput.t48 a_n6308_8799.t50 vdd.t196 vdd.t116 sky130_fd_pr__pfet_01v8 ad=1.32 pd=8.33 as=3.12 ps=16.78 w=8 l=0.5
X81 a_n3106_n452.t26 minus.t9 a_n2848_n452.t2 gnd.t3 sky130_fd_pr__nfet_01v8 ad=1.155 pd=7.33 as=1.155 ps=7.33 w=7 l=0.9
X82 a_n3106_n452.t18 plus.t11 a_n6308_8799.t3 gnd.t274 sky130_fd_pr__nfet_01v8 ad=2.73 pd=14.78 as=1.155 ps=7.33 w=7 l=0.9
X83 a_n6308_8799.t14 plus.t12 a_n3106_n452.t17 gnd.t269 sky130_fd_pr__nfet_01v8 ad=1.155 pd=7.33 as=1.155 ps=7.33 w=7 l=0.9
X84 gnd.t233 commonsourceibias.t78 CSoutput.t100 gnd.t183 sky130_fd_pr__nfet_01v8 ad=1.155 pd=7.33 as=1.155 ps=7.33 w=7 l=1
X85 output.t17 CSoutput.t123 vdd.t80 gnd.t307 sky130_fd_pr__nfet_01v8 ad=0.825 pd=5.33 as=0.825 ps=5.33 w=5 l=1
X86 a_n3106_n452.t47 diffpairibias.t17 gnd.t288 gnd.t287 sky130_fd_pr__nfet_01v8 ad=2.73 pd=14.78 as=2.73 ps=14.78 w=7 l=1
X87 vdd.t197 a_n6308_8799.t51 CSoutput.t47 vdd.t103 sky130_fd_pr__pfet_01v8 ad=1.32 pd=8.33 as=1.32 ps=8.33 w=8 l=0.5
X88 vdd.t192 a_n6308_8799.t52 CSoutput.t46 vdd.t129 sky130_fd_pr__pfet_01v8 ad=1.32 pd=8.33 as=1.32 ps=8.33 w=8 l=0.5
X89 a_n6308_8799.t22 a_n2848_n452.t61 a_n2318_8322.t23 vdd.t177 sky130_fd_pr__pfet_01v8 ad=1.485 pd=9.33 as=1.485 ps=9.33 w=9 l=0.5
X90 a_n2848_n452.t26 a_n2848_n452.t25 a_n2140_13878.t18 vdd.t187 sky130_fd_pr__pfet_01v8 ad=1.485 pd=9.33 as=1.485 ps=9.33 w=9 l=0.5
X91 a_n3106_n452.t16 plus.t13 a_n6308_8799.t20 gnd.t276 sky130_fd_pr__nfet_01v8 ad=1.155 pd=7.33 as=1.155 ps=7.33 w=7 l=0.9
X92 gnd.t232 commonsourceibias.t79 CSoutput.t5 gnd.t176 sky130_fd_pr__nfet_01v8 ad=1.155 pd=7.33 as=1.155 ps=7.33 w=7 l=1
X93 gnd.t116 gnd.t114 gnd.t115 gnd.t42 sky130_fd_pr__nfet_01v8 ad=2.73 pd=14.78 as=0 ps=0 w=7 l=1
X94 a_n2848_n452.t46 a_n2848_n452.t45 a_n2140_13878.t17 vdd.t146 sky130_fd_pr__pfet_01v8 ad=3.51 pd=18.78 as=1.485 ps=9.33 w=9 l=0.5
X95 gnd.t113 gnd.t111 gnd.t112 gnd.t42 sky130_fd_pr__nfet_01v8 ad=2.73 pd=14.78 as=0 ps=0 w=7 l=1
X96 CSoutput.t45 a_n6308_8799.t53 vdd.t193 vdd.t114 sky130_fd_pr__pfet_01v8 ad=1.32 pd=8.33 as=1.32 ps=8.33 w=8 l=0.5
X97 vdd.t200 a_n6308_8799.t54 CSoutput.t44 vdd.t105 sky130_fd_pr__pfet_01v8 ad=3.12 pd=16.78 as=1.32 ps=8.33 w=8 l=0.5
X98 gnd.t231 commonsourceibias.t80 CSoutput.t76 gnd.t154 sky130_fd_pr__nfet_01v8 ad=1.155 pd=7.33 as=1.155 ps=7.33 w=7 l=1
X99 a_n2848_n452.t6 minus.t10 a_n3106_n452.t30 gnd.t11 sky130_fd_pr__nfet_01v8 ad=1.155 pd=7.33 as=2.73 ps=14.78 w=7 l=0.9
X100 vdd.t63 vdd.t61 vdd.t62 vdd.t21 sky130_fd_pr__pfet_01v8 ad=3.12 pd=16.78 as=0 ps=0 w=8 l=0.5
X101 vdd.t60 vdd.t58 vdd.t59 vdd.t51 sky130_fd_pr__pfet_01v8 ad=3.51 pd=18.78 as=0 ps=0 w=9 l=0.5
X102 gnd.t230 commonsourceibias.t81 CSoutput.t116 gnd.t173 sky130_fd_pr__nfet_01v8 ad=1.155 pd=7.33 as=1.155 ps=7.33 w=7 l=1
X103 output.t16 CSoutput.t124 vdd.t81 gnd.t306 sky130_fd_pr__nfet_01v8 ad=0.825 pd=5.33 as=0.825 ps=5.33 w=5 l=1
X104 gnd.t229 commonsourceibias.t10 commonsourceibias.t11 gnd.t159 sky130_fd_pr__nfet_01v8 ad=2.73 pd=14.78 as=1.155 ps=7.33 w=7 l=1
X105 vdd.t57 vdd.t54 vdd.t56 vdd.t55 sky130_fd_pr__pfet_01v8 ad=3.51 pd=18.78 as=0 ps=0 w=9 l=0.5
X106 gnd.t110 gnd.t107 gnd.t109 gnd.t108 sky130_fd_pr__nfet_01v8 ad=1.95 pd=10.78 as=0 ps=0 w=5 l=1
X107 CSoutput.t125 a_n2318_8322.t1 sky130_fd_pr__cap_mim_m3_1 l=12 w=12
X108 output.t2 outputibias.t9 gnd.t267 gnd.t266 sky130_fd_pr__nfet_01v8 ad=2.34 pd=12.78 as=2.34 ps=12.78 w=6 l=2
X109 a_n2318_8322.t11 a_n2848_n452.t62 vdd.t182 vdd.t181 sky130_fd_pr__pfet_01v8 ad=1.485 pd=9.33 as=1.485 ps=9.33 w=9 l=0.5
X110 vdd.t186 a_n2848_n452.t63 a_n2318_8322.t10 vdd.t185 sky130_fd_pr__pfet_01v8 ad=1.485 pd=9.33 as=1.485 ps=9.33 w=9 l=0.5
X111 a_n2848_n452.t50 a_n2848_n452.t49 a_n2140_13878.t16 vdd.t153 sky130_fd_pr__pfet_01v8 ad=3.51 pd=18.78 as=1.485 ps=9.33 w=9 l=0.5
X112 CSoutput.t43 a_n6308_8799.t55 vdd.t201 vdd.t84 sky130_fd_pr__pfet_01v8 ad=1.32 pd=8.33 as=1.32 ps=8.33 w=8 l=0.5
X113 CSoutput.t70 commonsourceibias.t82 gnd.t228 gnd.t219 sky130_fd_pr__nfet_01v8 ad=1.155 pd=7.33 as=1.155 ps=7.33 w=7 l=1
X114 vdd.t133 CSoutput.t126 output.t15 gnd.t305 sky130_fd_pr__nfet_01v8 ad=0.825 pd=5.33 as=0.825 ps=5.33 w=5 l=1
X115 a_n3106_n452.t37 diffpairibias.t18 gnd.t143 gnd.t142 sky130_fd_pr__nfet_01v8 ad=2.73 pd=14.78 as=2.73 ps=14.78 w=7 l=1
X116 outputibias.t5 outputibias.t4 gnd.t311 gnd.t310 sky130_fd_pr__nfet_01v8 ad=2.34 pd=12.78 as=2.34 ps=12.78 w=6 l=2
X117 gnd.t106 gnd.t104 minus.t4 gnd.t105 sky130_fd_pr__nfet_01v8 ad=0.39 pd=2.78 as=0.165 ps=1.33 w=1 l=0.5
X118 gnd.t103 gnd.t101 gnd.t102 gnd.t38 sky130_fd_pr__nfet_01v8 ad=2.73 pd=14.78 as=0 ps=0 w=7 l=1
X119 CSoutput.t74 commonsourceibias.t83 gnd.t227 gnd.t214 sky130_fd_pr__nfet_01v8 ad=1.155 pd=7.33 as=1.155 ps=7.33 w=7 l=1
X120 gnd.t100 gnd.t98 gnd.t99 gnd.t24 sky130_fd_pr__nfet_01v8 ad=2.73 pd=14.78 as=0 ps=0 w=7 l=0.9
X121 vdd.t184 a_n2848_n452.t64 a_n2140_13878.t3 vdd.t183 sky130_fd_pr__pfet_01v8 ad=1.485 pd=9.33 as=1.485 ps=9.33 w=9 l=0.5
X122 vdd.t53 vdd.t50 vdd.t52 vdd.t51 sky130_fd_pr__pfet_01v8 ad=3.51 pd=18.78 as=0 ps=0 w=9 l=0.5
X123 outputibias.t3 outputibias.t2 gnd.t280 gnd.t279 sky130_fd_pr__nfet_01v8 ad=2.34 pd=12.78 as=2.34 ps=12.78 w=6 l=2
X124 vdd.t104 a_n6308_8799.t56 CSoutput.t42 vdd.t103 sky130_fd_pr__pfet_01v8 ad=1.32 pd=8.33 as=1.32 ps=8.33 w=8 l=0.5
X125 gnd.t97 gnd.t95 gnd.t96 gnd.t42 sky130_fd_pr__nfet_01v8 ad=2.73 pd=14.78 as=0 ps=0 w=7 l=1
X126 gnd.t94 gnd.t92 plus.t3 gnd.t93 sky130_fd_pr__nfet_01v8 ad=0.39 pd=2.78 as=0.165 ps=1.33 w=1 l=0.5
X127 a_n6308_8799.t24 a_n2848_n452.t65 a_n2318_8322.t22 vdd.t152 sky130_fd_pr__pfet_01v8 ad=1.485 pd=9.33 as=1.485 ps=9.33 w=9 l=0.5
X128 a_n2318_8322.t9 a_n2848_n452.t66 vdd.t180 vdd.t179 sky130_fd_pr__pfet_01v8 ad=3.51 pd=18.78 as=1.485 ps=9.33 w=9 l=0.5
X129 vdd.t49 vdd.t46 vdd.t48 vdd.t47 sky130_fd_pr__pfet_01v8 ad=3.51 pd=18.78 as=0 ps=0 w=9 l=0.5
X130 a_n2848_n452.t1 minus.t11 a_n3106_n452.t25 gnd.t2 sky130_fd_pr__nfet_01v8 ad=1.155 pd=7.33 as=1.155 ps=7.33 w=7 l=0.9
X131 a_n6308_8799.t7 plus.t14 a_n3106_n452.t15 gnd.t268 sky130_fd_pr__nfet_01v8 ad=1.155 pd=7.33 as=2.73 ps=14.78 w=7 l=0.9
X132 vdd.t106 a_n6308_8799.t57 CSoutput.t41 vdd.t105 sky130_fd_pr__pfet_01v8 ad=3.12 pd=16.78 as=1.32 ps=8.33 w=8 l=0.5
X133 a_n2848_n452.t48 a_n2848_n452.t47 a_n2140_13878.t15 vdd.t164 sky130_fd_pr__pfet_01v8 ad=1.485 pd=9.33 as=1.485 ps=9.33 w=9 l=0.5
X134 a_n6308_8799.t11 plus.t15 a_n3106_n452.t14 gnd.t4 sky130_fd_pr__nfet_01v8 ad=1.155 pd=7.33 as=1.155 ps=7.33 w=7 l=0.9
X135 a_n2848_n452.t55 minus.t12 a_n3106_n452.t52 gnd.t285 sky130_fd_pr__nfet_01v8 ad=1.155 pd=7.33 as=1.155 ps=7.33 w=7 l=0.9
X136 diffpairibias.t11 diffpairibias.t10 gnd.t9 gnd.t8 sky130_fd_pr__nfet_01v8 ad=2.73 pd=14.78 as=2.73 ps=14.78 w=7 l=1
X137 CSoutput.t40 a_n6308_8799.t58 vdd.t198 vdd.t114 sky130_fd_pr__pfet_01v8 ad=1.32 pd=8.33 as=1.32 ps=8.33 w=8 l=0.5
X138 a_n6308_8799.t32 a_n2848_n452.t67 a_n2318_8322.t21 vdd.t178 sky130_fd_pr__pfet_01v8 ad=1.485 pd=9.33 as=1.485 ps=9.33 w=9 l=0.5
X139 vdd.t134 CSoutput.t127 output.t14 gnd.t304 sky130_fd_pr__nfet_01v8 ad=0.825 pd=5.33 as=0.825 ps=5.33 w=5 l=1
X140 CSoutput.t0 commonsourceibias.t84 gnd.t226 gnd.t187 sky130_fd_pr__nfet_01v8 ad=1.155 pd=7.33 as=1.155 ps=7.33 w=7 l=1
X141 a_n2140_13878.t14 a_n2848_n452.t33 a_n2848_n452.t34 vdd.t177 sky130_fd_pr__pfet_01v8 ad=1.485 pd=9.33 as=1.485 ps=9.33 w=9 l=0.5
X142 gnd.t225 commonsourceibias.t85 CSoutput.t71 gnd.t207 sky130_fd_pr__nfet_01v8 ad=1.155 pd=7.33 as=1.155 ps=7.33 w=7 l=1
X143 output.t13 CSoutput.t128 vdd.t131 gnd.t303 sky130_fd_pr__nfet_01v8 ad=0.825 pd=5.33 as=0.825 ps=5.33 w=5 l=1
X144 commonsourceibias.t15 commonsourceibias.t14 gnd.t224 gnd.t146 sky130_fd_pr__nfet_01v8 ad=1.155 pd=7.33 as=1.155 ps=7.33 w=7 l=1
X145 vdd.t45 vdd.t43 vdd.t44 vdd.t21 sky130_fd_pr__pfet_01v8 ad=3.12 pd=16.78 as=0 ps=0 w=8 l=0.5
X146 a_n3106_n452.t34 minus.t13 a_n2848_n452.t10 gnd.t17 sky130_fd_pr__nfet_01v8 ad=1.155 pd=7.33 as=1.155 ps=7.33 w=7 l=0.9
X147 CSoutput.t129 a_n2318_8322.t3 sky130_fd_pr__cap_mim_m3_1 l=12 w=12
X148 a_n2140_13878.t13 a_n2848_n452.t23 a_n2848_n452.t24 vdd.t176 sky130_fd_pr__pfet_01v8 ad=1.485 pd=9.33 as=3.51 ps=18.78 w=9 l=0.5
X149 vdd.t175 a_n2848_n452.t68 a_n2318_8322.t8 vdd.t174 sky130_fd_pr__pfet_01v8 ad=1.485 pd=9.33 as=3.51 ps=18.78 w=9 l=0.5
X150 CSoutput.t68 commonsourceibias.t86 gnd.t223 gnd.t148 sky130_fd_pr__nfet_01v8 ad=1.155 pd=7.33 as=1.155 ps=7.33 w=7 l=1
X151 output.t12 CSoutput.t130 vdd.t132 gnd.t302 sky130_fd_pr__nfet_01v8 ad=0.825 pd=5.33 as=0.825 ps=5.33 w=5 l=1
X152 CSoutput.t131 a_n2318_8322.t2 sky130_fd_pr__cap_mim_m3_1 l=12 w=12
X153 a_n2848_n452.t32 a_n2848_n452.t31 a_n2140_13878.t12 vdd.t149 sky130_fd_pr__pfet_01v8 ad=1.485 pd=9.33 as=1.485 ps=9.33 w=9 l=0.5
X154 gnd.t222 commonsourceibias.t87 CSoutput.t102 gnd.t198 sky130_fd_pr__nfet_01v8 ad=1.155 pd=7.33 as=1.155 ps=7.33 w=7 l=1
X155 gnd.t221 commonsourceibias.t88 CSoutput.t107 gnd.t181 sky130_fd_pr__nfet_01v8 ad=1.155 pd=7.33 as=1.155 ps=7.33 w=7 l=1
X156 a_n3106_n452.t13 plus.t16 a_n6308_8799.t9 gnd.t275 sky130_fd_pr__nfet_01v8 ad=1.155 pd=7.33 as=1.155 ps=7.33 w=7 l=0.9
X157 a_n2848_n452.t15 minus.t14 a_n3106_n452.t40 gnd.t270 sky130_fd_pr__nfet_01v8 ad=1.155 pd=7.33 as=1.155 ps=7.33 w=7 l=0.9
X158 commonsourceibias.t13 commonsourceibias.t12 gnd.t220 gnd.t219 sky130_fd_pr__nfet_01v8 ad=1.155 pd=7.33 as=1.155 ps=7.33 w=7 l=1
X159 gnd.t218 commonsourceibias.t89 CSoutput.t106 gnd.t170 sky130_fd_pr__nfet_01v8 ad=2.73 pd=14.78 as=1.155 ps=7.33 w=7 l=1
X160 CSoutput.t105 commonsourceibias.t90 gnd.t216 gnd.t178 sky130_fd_pr__nfet_01v8 ad=1.155 pd=7.33 as=1.155 ps=7.33 w=7 l=1
X161 outputibias.t1 outputibias.t0 gnd.t7 gnd.t6 sky130_fd_pr__nfet_01v8 ad=2.34 pd=12.78 as=2.34 ps=12.78 w=6 l=2
X162 gnd.t91 gnd.t88 gnd.t90 gnd.t89 sky130_fd_pr__nfet_01v8 ad=2.73 pd=14.78 as=0 ps=0 w=7 l=1
X163 a_n3106_n452.t41 diffpairibias.t19 gnd.t272 gnd.t271 sky130_fd_pr__nfet_01v8 ad=2.73 pd=14.78 as=2.73 ps=14.78 w=7 l=1
X164 a_n6308_8799.t37 plus.t17 a_n3106_n452.t12 gnd.t5 sky130_fd_pr__nfet_01v8 ad=1.155 pd=7.33 as=1.155 ps=7.33 w=7 l=0.9
X165 a_n3106_n452.t46 diffpairibias.t20 gnd.t284 gnd.t283 sky130_fd_pr__nfet_01v8 ad=2.73 pd=14.78 as=2.73 ps=14.78 w=7 l=1
X166 output.t1 outputibias.t10 gnd.t313 gnd.t312 sky130_fd_pr__nfet_01v8 ad=2.34 pd=12.78 as=2.34 ps=12.78 w=6 l=2
X167 commonsourceibias.t17 commonsourceibias.t16 gnd.t215 gnd.t214 sky130_fd_pr__nfet_01v8 ad=1.155 pd=7.33 as=1.155 ps=7.33 w=7 l=1
X168 vdd.t199 a_n6308_8799.t59 CSoutput.t39 vdd.t118 sky130_fd_pr__pfet_01v8 ad=3.12 pd=16.78 as=1.32 ps=8.33 w=8 l=0.5
X169 gnd.t87 gnd.t85 gnd.t86 gnd.t62 sky130_fd_pr__nfet_01v8 ad=2.73 pd=14.78 as=0 ps=0 w=7 l=1
X170 a_n6308_8799.t18 plus.t18 a_n3106_n452.t11 gnd.t19 sky130_fd_pr__nfet_01v8 ad=1.155 pd=7.33 as=1.155 ps=7.33 w=7 l=0.9
X171 CSoutput.t109 commonsourceibias.t91 gnd.t213 gnd.t187 sky130_fd_pr__nfet_01v8 ad=1.155 pd=7.33 as=1.155 ps=7.33 w=7 l=1
X172 vdd.t139 CSoutput.t132 output.t11 gnd.t301 sky130_fd_pr__nfet_01v8 ad=0.825 pd=5.33 as=0.825 ps=5.33 w=5 l=1
X173 CSoutput.t98 commonsourceibias.t92 gnd.t212 gnd.t168 sky130_fd_pr__nfet_01v8 ad=1.155 pd=7.33 as=1.155 ps=7.33 w=7 l=1
X174 gnd.t84 gnd.t82 gnd.t83 gnd.t34 sky130_fd_pr__nfet_01v8 ad=2.73 pd=14.78 as=0 ps=0 w=7 l=1
X175 CSoutput.t38 a_n6308_8799.t60 vdd.t95 vdd.t94 sky130_fd_pr__pfet_01v8 ad=1.32 pd=8.33 as=1.32 ps=8.33 w=8 l=0.5
X176 CSoutput.t37 a_n6308_8799.t61 vdd.t96 vdd.t90 sky130_fd_pr__pfet_01v8 ad=1.32 pd=8.33 as=1.32 ps=8.33 w=8 l=0.5
X177 minus.t3 gnd.t79 gnd.t81 gnd.t80 sky130_fd_pr__nfet_01v8 ad=0.165 pd=1.33 as=0.165 ps=1.33 w=1 l=0.5
X178 commonsourceibias.t29 commonsourceibias.t28 gnd.t210 gnd.t194 sky130_fd_pr__nfet_01v8 ad=1.155 pd=7.33 as=1.155 ps=7.33 w=7 l=1
X179 a_n2140_13878.t1 a_n2848_n452.t69 vdd.t173 vdd.t172 sky130_fd_pr__pfet_01v8 ad=1.485 pd=9.33 as=1.485 ps=9.33 w=9 l=0.5
X180 diffpairibias.t9 diffpairibias.t8 gnd.t317 gnd.t316 sky130_fd_pr__nfet_01v8 ad=2.73 pd=14.78 as=2.73 ps=14.78 w=7 l=1
X181 vdd.t171 a_n2848_n452.t70 a_n2140_13878.t0 vdd.t170 sky130_fd_pr__pfet_01v8 ad=1.485 pd=9.33 as=1.485 ps=9.33 w=9 l=0.5
X182 CSoutput.t97 commonsourceibias.t93 gnd.t211 gnd.t178 sky130_fd_pr__nfet_01v8 ad=1.155 pd=7.33 as=1.155 ps=7.33 w=7 l=1
X183 CSoutput.t81 commonsourceibias.t94 gnd.t209 gnd.t152 sky130_fd_pr__nfet_01v8 ad=1.155 pd=7.33 as=1.155 ps=7.33 w=7 l=1
X184 a_n2848_n452.t8 minus.t15 a_n3106_n452.t32 gnd.t13 sky130_fd_pr__nfet_01v8 ad=1.155 pd=7.33 as=1.155 ps=7.33 w=7 l=0.9
X185 a_n3106_n452.t10 plus.t19 a_n6308_8799.t0 gnd.t1 sky130_fd_pr__nfet_01v8 ad=1.155 pd=7.33 as=1.155 ps=7.33 w=7 l=0.9
X186 gnd.t208 commonsourceibias.t26 commonsourceibias.t27 gnd.t207 sky130_fd_pr__nfet_01v8 ad=1.155 pd=7.33 as=1.155 ps=7.33 w=7 l=1
X187 commonsourceibias.t25 commonsourceibias.t24 gnd.t206 gnd.t205 sky130_fd_pr__nfet_01v8 ad=1.155 pd=7.33 as=1.155 ps=7.33 w=7 l=1
X188 a_n2140_13878.t11 a_n2848_n452.t51 a_n2848_n452.t52 vdd.t169 sky130_fd_pr__pfet_01v8 ad=1.485 pd=9.33 as=1.485 ps=9.33 w=9 l=0.5
X189 gnd.t204 commonsourceibias.t95 CSoutput.t93 gnd.t161 sky130_fd_pr__nfet_01v8 ad=1.155 pd=7.33 as=1.155 ps=7.33 w=7 l=1
X190 commonsourceibias.t23 commonsourceibias.t22 gnd.t203 gnd.t163 sky130_fd_pr__nfet_01v8 ad=1.155 pd=7.33 as=2.73 ps=14.78 w=7 l=1
X191 a_n2318_8322.t20 a_n2848_n452.t71 a_n6308_8799.t28 vdd.t142 sky130_fd_pr__pfet_01v8 ad=1.485 pd=9.33 as=1.485 ps=9.33 w=9 l=0.5
X192 a_n3106_n452.t42 minus.t16 a_n2848_n452.t16 gnd.t273 sky130_fd_pr__nfet_01v8 ad=1.155 pd=7.33 as=1.155 ps=7.33 w=7 l=0.9
X193 gnd.t202 commonsourceibias.t20 commonsourceibias.t21 gnd.t157 sky130_fd_pr__nfet_01v8 ad=1.155 pd=7.33 as=1.155 ps=7.33 w=7 l=1
X194 gnd.t78 gnd.t76 gnd.t77 gnd.t34 sky130_fd_pr__nfet_01v8 ad=2.73 pd=14.78 as=0 ps=0 w=7 l=1
X195 diffpairibias.t7 diffpairibias.t6 gnd.t325 gnd.t324 sky130_fd_pr__nfet_01v8 ad=2.73 pd=14.78 as=2.73 ps=14.78 w=7 l=1
X196 commonsourceibias.t37 commonsourceibias.t36 gnd.t201 gnd.t192 sky130_fd_pr__nfet_01v8 ad=1.155 pd=7.33 as=2.73 ps=14.78 w=7 l=1
X197 gnd.t75 gnd.t72 gnd.t74 gnd.t73 sky130_fd_pr__nfet_01v8 ad=1.95 pd=10.78 as=0 ps=0 w=5 l=1
X198 vdd.t128 a_n6308_8799.t62 CSoutput.t36 vdd.t118 sky130_fd_pr__pfet_01v8 ad=3.12 pd=16.78 as=1.32 ps=8.33 w=8 l=0.5
X199 vdd.t168 a_n2848_n452.t72 a_n2318_8322.t7 vdd.t167 sky130_fd_pr__pfet_01v8 ad=1.485 pd=9.33 as=3.51 ps=18.78 w=9 l=0.5
X200 output.t10 CSoutput.t133 vdd.t140 gnd.t300 sky130_fd_pr__nfet_01v8 ad=0.825 pd=5.33 as=0.825 ps=5.33 w=5 l=1
X201 a_n3106_n452.t31 minus.t17 a_n2848_n452.t7 gnd.t12 sky130_fd_pr__nfet_01v8 ad=1.155 pd=7.33 as=1.155 ps=7.33 w=7 l=0.9
X202 a_n3106_n452.t9 plus.t20 a_n6308_8799.t39 gnd.t10 sky130_fd_pr__nfet_01v8 ad=2.73 pd=14.78 as=1.155 ps=7.33 w=7 l=0.9
X203 gnd.t200 commonsourceibias.t96 CSoutput.t75 gnd.t161 sky130_fd_pr__nfet_01v8 ad=1.155 pd=7.33 as=1.155 ps=7.33 w=7 l=1
X204 a_n3106_n452.t48 minus.t18 a_n2848_n452.t19 gnd.t291 sky130_fd_pr__nfet_01v8 ad=1.155 pd=7.33 as=1.155 ps=7.33 w=7 l=0.9
X205 output.t0 outputibias.t11 gnd.t278 gnd.t277 sky130_fd_pr__nfet_01v8 ad=2.34 pd=12.78 as=2.34 ps=12.78 w=6 l=2
X206 a_n2140_13878.t2 a_n2848_n452.t73 vdd.t166 vdd.t165 sky130_fd_pr__pfet_01v8 ad=3.51 pd=18.78 as=1.485 ps=9.33 w=9 l=0.5
X207 gnd.t199 commonsourceibias.t34 commonsourceibias.t35 gnd.t198 sky130_fd_pr__nfet_01v8 ad=1.155 pd=7.33 as=1.155 ps=7.33 w=7 l=1
X208 vdd.t130 a_n6308_8799.t63 CSoutput.t35 vdd.t129 sky130_fd_pr__pfet_01v8 ad=1.32 pd=8.33 as=1.32 ps=8.33 w=8 l=0.5
X209 vdd.t42 vdd.t40 vdd.t41 vdd.t1 sky130_fd_pr__pfet_01v8 ad=3.12 pd=16.78 as=0 ps=0 w=8 l=0.5
X210 output.t9 CSoutput.t134 vdd.t137 gnd.t299 sky130_fd_pr__nfet_01v8 ad=1.95 pd=10.78 as=0.825 ps=5.33 w=5 l=1
X211 CSoutput.t34 a_n6308_8799.t64 vdd.t120 vdd.t107 sky130_fd_pr__pfet_01v8 ad=1.32 pd=8.33 as=1.32 ps=8.33 w=8 l=0.5
X212 CSoutput.t33 a_n6308_8799.t65 vdd.t121 vdd.t94 sky130_fd_pr__pfet_01v8 ad=1.32 pd=8.33 as=1.32 ps=8.33 w=8 l=0.5
X213 gnd.t71 gnd.t68 gnd.t70 gnd.t69 sky130_fd_pr__nfet_01v8 ad=2.73 pd=14.78 as=0 ps=0 w=7 l=1
X214 a_n2318_8322.t19 a_n2848_n452.t74 a_n6308_8799.t35 vdd.t164 sky130_fd_pr__pfet_01v8 ad=1.485 pd=9.33 as=1.485 ps=9.33 w=9 l=0.5
X215 vdd.t163 a_n2848_n452.t75 a_n2318_8322.t6 vdd.t162 sky130_fd_pr__pfet_01v8 ad=1.485 pd=9.33 as=1.485 ps=9.33 w=9 l=0.5
X216 CSoutput.t32 a_n6308_8799.t66 vdd.t100 vdd.t94 sky130_fd_pr__pfet_01v8 ad=1.32 pd=8.33 as=1.32 ps=8.33 w=8 l=0.5
X217 minus.t2 gnd.t65 gnd.t67 gnd.t66 sky130_fd_pr__nfet_01v8 ad=0.165 pd=1.33 as=0.165 ps=1.33 w=1 l=0.5
X218 a_n3106_n452.t54 diffpairibias.t21 gnd.t321 gnd.t320 sky130_fd_pr__nfet_01v8 ad=2.73 pd=14.78 as=2.73 ps=14.78 w=7 l=1
X219 CSoutput.t31 a_n6308_8799.t67 vdd.t102 vdd.t101 sky130_fd_pr__pfet_01v8 ad=1.32 pd=8.33 as=3.12 ps=16.78 w=8 l=0.5
X220 vdd.t87 a_n6308_8799.t68 CSoutput.t30 vdd.t86 sky130_fd_pr__pfet_01v8 ad=1.32 pd=8.33 as=1.32 ps=8.33 w=8 l=0.5
X221 a_n6308_8799.t38 plus.t21 a_n3106_n452.t8 gnd.t16 sky130_fd_pr__nfet_01v8 ad=1.155 pd=7.33 as=1.155 ps=7.33 w=7 l=0.9
X222 a_n2848_n452.t0 minus.t19 a_n3106_n452.t0 gnd.t0 sky130_fd_pr__nfet_01v8 ad=1.155 pd=7.33 as=1.155 ps=7.33 w=7 l=0.9
X223 gnd.t197 commonsourceibias.t32 commonsourceibias.t33 gnd.t176 sky130_fd_pr__nfet_01v8 ad=1.155 pd=7.33 as=1.155 ps=7.33 w=7 l=1
X224 vdd.t89 a_n6308_8799.t69 CSoutput.t29 vdd.t88 sky130_fd_pr__pfet_01v8 ad=1.32 pd=8.33 as=1.32 ps=8.33 w=8 l=0.5
X225 vdd.t113 a_n6308_8799.t70 CSoutput.t28 vdd.t112 sky130_fd_pr__pfet_01v8 ad=1.32 pd=8.33 as=1.32 ps=8.33 w=8 l=0.5
X226 a_n3106_n452.t51 minus.t20 a_n2848_n452.t22 gnd.t274 sky130_fd_pr__nfet_01v8 ad=2.73 pd=14.78 as=1.155 ps=7.33 w=7 l=0.9
X227 CSoutput.t135 a_n2318_8322.t1 sky130_fd_pr__cap_mim_m3_1 l=12 w=12
X228 vdd.t39 vdd.t37 vdd.t38 vdd.t17 sky130_fd_pr__pfet_01v8 ad=3.12 pd=16.78 as=0 ps=0 w=8 l=0.5
X229 vdd.t36 vdd.t33 vdd.t35 vdd.t34 sky130_fd_pr__pfet_01v8 ad=3.51 pd=18.78 as=0 ps=0 w=9 l=0.5
X230 a_n3106_n452.t44 minus.t21 a_n2848_n452.t18 gnd.t276 sky130_fd_pr__nfet_01v8 ad=1.155 pd=7.33 as=1.155 ps=7.33 w=7 l=0.9
X231 vdd.t138 CSoutput.t136 output.t8 gnd.t298 sky130_fd_pr__nfet_01v8 ad=0.825 pd=5.33 as=1.95 ps=10.78 w=5 l=1
X232 gnd.t196 commonsourceibias.t30 commonsourceibias.t31 gnd.t154 sky130_fd_pr__nfet_01v8 ad=1.155 pd=7.33 as=1.155 ps=7.33 w=7 l=1
X233 a_n2140_13878.t10 a_n2848_n452.t27 a_n2848_n452.t28 vdd.t156 sky130_fd_pr__pfet_01v8 ad=1.485 pd=9.33 as=1.485 ps=9.33 w=9 l=0.5
X234 a_n3106_n452.t50 minus.t22 a_n2848_n452.t21 gnd.t286 sky130_fd_pr__nfet_01v8 ad=1.155 pd=7.33 as=1.155 ps=7.33 w=7 l=0.9
X235 CSoutput.t113 commonsourceibias.t97 gnd.t195 gnd.t194 sky130_fd_pr__nfet_01v8 ad=1.155 pd=7.33 as=1.155 ps=7.33 w=7 l=1
X236 vdd.t76 CSoutput.t137 output.t7 gnd.t297 sky130_fd_pr__nfet_01v8 ad=0.825 pd=5.33 as=0.825 ps=5.33 w=5 l=1
X237 a_n2318_8322.t18 a_n2848_n452.t76 a_n6308_8799.t34 vdd.t161 sky130_fd_pr__pfet_01v8 ad=1.485 pd=9.33 as=1.485 ps=9.33 w=9 l=0.5
X238 diffpairibias.t5 diffpairibias.t4 gnd.t319 gnd.t318 sky130_fd_pr__nfet_01v8 ad=2.73 pd=14.78 as=2.73 ps=14.78 w=7 l=1
X239 CSoutput.t27 a_n6308_8799.t71 vdd.t115 vdd.t114 sky130_fd_pr__pfet_01v8 ad=1.32 pd=8.33 as=1.32 ps=8.33 w=8 l=0.5
X240 gnd.t64 gnd.t61 gnd.t63 gnd.t62 sky130_fd_pr__nfet_01v8 ad=2.73 pd=14.78 as=0 ps=0 w=7 l=1
X241 vdd.t135 a_n6308_8799.t72 CSoutput.t26 vdd.t88 sky130_fd_pr__pfet_01v8 ad=1.32 pd=8.33 as=1.32 ps=8.33 w=8 l=0.5
X242 CSoutput.t83 commonsourceibias.t98 gnd.t193 gnd.t192 sky130_fd_pr__nfet_01v8 ad=1.155 pd=7.33 as=2.73 ps=14.78 w=7 l=1
X243 vdd.t136 a_n6308_8799.t73 CSoutput.t25 vdd.t129 sky130_fd_pr__pfet_01v8 ad=1.32 pd=8.33 as=1.32 ps=8.33 w=8 l=0.5
X244 vdd.t32 vdd.t30 vdd.t31 vdd.t1 sky130_fd_pr__pfet_01v8 ad=3.12 pd=16.78 as=0 ps=0 w=8 l=0.5
X245 CSoutput.t24 a_n6308_8799.t74 vdd.t108 vdd.t107 sky130_fd_pr__pfet_01v8 ad=1.32 pd=8.33 as=1.32 ps=8.33 w=8 l=0.5
X246 a_n2318_8322.t5 a_n2848_n452.t77 vdd.t160 vdd.t159 sky130_fd_pr__pfet_01v8 ad=3.51 pd=18.78 as=1.485 ps=9.33 w=9 l=0.5
X247 gnd.t60 gnd.t57 gnd.t59 gnd.t58 sky130_fd_pr__nfet_01v8 ad=2.73 pd=14.78 as=0 ps=0 w=7 l=0.9
X248 vdd.t29 vdd.t27 vdd.t28 vdd.t13 sky130_fd_pr__pfet_01v8 ad=3.51 pd=18.78 as=0 ps=0 w=9 l=0.5
X249 a_n3106_n452.t35 minus.t23 a_n2848_n452.t11 gnd.t18 sky130_fd_pr__nfet_01v8 ad=1.155 pd=7.33 as=1.155 ps=7.33 w=7 l=0.9
X250 gnd.t191 commonsourceibias.t99 CSoutput.t65 gnd.t173 sky130_fd_pr__nfet_01v8 ad=1.155 pd=7.33 as=1.155 ps=7.33 w=7 l=1
X251 gnd.t56 gnd.t54 gnd.t55 gnd.t34 sky130_fd_pr__nfet_01v8 ad=2.73 pd=14.78 as=0 ps=0 w=7 l=1