* NGSPICE file created from opamp468.ext - technology: sky130A

.subckt opamp468 gnd CSoutput output vdd plus minus commonsourceibias outputibias
+ diffpairibias
X0 gnd.t277 commonsourceibias.t48 CSoutput.t121 gnd.t195 sky130_fd_pr__nfet_01v8 ad=1.155 pd=7.33 as=1.155 ps=7.33 w=7 l=1
X1 gnd.t159 gnd.t157 gnd.t158 gnd.t141 sky130_fd_pr__nfet_01v8 ad=2.73 pd=14.78 as=0 ps=0 w=7 l=1
X2 commonsourceibias.t29 commonsourceibias.t28 gnd.t276 gnd.t253 sky130_fd_pr__nfet_01v8 ad=1.155 pd=7.33 as=2.73 ps=14.78 w=7 l=1
X3 a_n2804_13878.t7 a_n2982_13878.t72 vdd.t270 vdd.t269 sky130_fd_pr__pfet_01v8 ad=1.485 pd=9.33 as=1.485 ps=9.33 w=9 l=0.5
X4 a_n2804_13878.t31 a_n2982_13878.t63 a_n2982_13878.t64 vdd.t257 sky130_fd_pr__pfet_01v8 ad=1.485 pd=9.33 as=1.485 ps=9.33 w=9 l=0.5
X5 vdd.t64 a_n9628_8799.t48 CSoutput.t26 vdd.t63 sky130_fd_pr__pfet_01v8 ad=1.32 pd=8.33 as=1.32 ps=8.33 w=8 l=0.5
X6 vdd.t7 CSoutput.t168 output.t15 gnd.t19 sky130_fd_pr__nfet_01v8 ad=0.825 pd=5.33 as=0.825 ps=5.33 w=5 l=1
X7 a_n9628_8799.t14 plus.t5 a_n3106_n452.t32 gnd.t51 sky130_fd_pr__nfet_01v8 ad=1.155 pd=7.33 as=1.155 ps=7.33 w=7 l=0.9
X8 CSoutput.t27 a_n9628_8799.t49 vdd.t66 vdd.t65 sky130_fd_pr__pfet_01v8 ad=1.32 pd=8.33 as=1.32 ps=8.33 w=8 l=0.5
X9 a_n3106_n452.t31 plus.t6 a_n9628_8799.t13 gnd.t44 sky130_fd_pr__nfet_01v8 ad=1.155 pd=7.33 as=1.155 ps=7.33 w=7 l=0.9
X10 gnd.t273 commonsourceibias.t49 CSoutput.t105 gnd.t249 sky130_fd_pr__nfet_01v8 ad=1.155 pd=7.33 as=1.155 ps=7.33 w=7 l=1
X11 gnd.t275 commonsourceibias.t26 commonsourceibias.t27 gnd.t208 sky130_fd_pr__nfet_01v8 ad=1.155 pd=7.33 as=1.155 ps=7.33 w=7 l=1
X12 vdd.t292 a_n9628_8799.t50 CSoutput.t152 vdd.t97 sky130_fd_pr__pfet_01v8 ad=1.32 pd=8.33 as=1.32 ps=8.33 w=8 l=0.5
X13 gnd.t274 commonsourceibias.t50 CSoutput.t120 gnd.t208 sky130_fd_pr__nfet_01v8 ad=1.155 pd=7.33 as=1.155 ps=7.33 w=7 l=1
X14 a_n2982_8322.t29 a_n2982_13878.t73 a_n9628_8799.t34 vdd.t267 sky130_fd_pr__pfet_01v8 ad=1.485 pd=9.33 as=1.485 ps=9.33 w=9 l=0.5
X15 CSoutput.t153 a_n9628_8799.t51 vdd.t293 vdd.t46 sky130_fd_pr__pfet_01v8 ad=1.32 pd=8.33 as=1.32 ps=8.33 w=8 l=0.5
X16 vdd.t39 a_n9628_8799.t52 CSoutput.t12 vdd.t38 sky130_fd_pr__pfet_01v8 ad=1.32 pd=8.33 as=1.32 ps=8.33 w=8 l=0.5
X17 CSoutput.t13 a_n9628_8799.t53 vdd.t41 vdd.t40 sky130_fd_pr__pfet_01v8 ad=1.32 pd=8.33 as=1.32 ps=8.33 w=8 l=0.5
X18 vdd.t100 a_n9628_8799.t54 CSoutput.t50 vdd.t38 sky130_fd_pr__pfet_01v8 ad=1.32 pd=8.33 as=1.32 ps=8.33 w=8 l=0.5
X19 vdd.t101 a_n9628_8799.t55 CSoutput.t51 vdd.t27 sky130_fd_pr__pfet_01v8 ad=3.12 pd=16.78 as=1.32 ps=8.33 w=8 l=0.5
X20 CSoutput.t76 a_n9628_8799.t56 vdd.t131 vdd.t59 sky130_fd_pr__pfet_01v8 ad=1.32 pd=8.33 as=1.32 ps=8.33 w=8 l=0.5
X21 a_n2982_13878.t2 minus.t5 a_n3106_n452.t2 gnd.t2 sky130_fd_pr__nfet_01v8 ad=1.155 pd=7.33 as=1.155 ps=7.33 w=7 l=0.9
X22 gnd.t272 commonsourceibias.t18 commonsourceibias.t19 gnd.t224 sky130_fd_pr__nfet_01v8 ad=1.155 pd=7.33 as=1.155 ps=7.33 w=7 l=1
X23 a_n9628_8799.t12 plus.t7 a_n3106_n452.t30 gnd.t1 sky130_fd_pr__nfet_01v8 ad=1.155 pd=7.33 as=1.155 ps=7.33 w=7 l=0.9
X24 a_n9628_8799.t36 a_n2982_13878.t74 a_n2982_8322.t28 vdd.t253 sky130_fd_pr__pfet_01v8 ad=1.485 pd=9.33 as=1.485 ps=9.33 w=9 l=0.5
X25 a_n2982_13878.t6 minus.t6 a_n3106_n452.t7 gnd.t26 sky130_fd_pr__nfet_01v8 ad=1.155 pd=7.33 as=1.155 ps=7.33 w=7 l=0.9
X26 plus.t4 gnd.t154 gnd.t156 gnd.t155 sky130_fd_pr__nfet_01v8 ad=0.165 pd=1.33 as=0.165 ps=1.33 w=1 l=0.5
X27 vdd.t132 a_n9628_8799.t57 CSoutput.t77 vdd.t20 sky130_fd_pr__pfet_01v8 ad=1.32 pd=8.33 as=1.32 ps=8.33 w=8 l=0.5
X28 vdd.t127 a_n9628_8799.t58 CSoutput.t72 vdd.t36 sky130_fd_pr__pfet_01v8 ad=1.32 pd=8.33 as=1.32 ps=8.33 w=8 l=0.5
X29 CSoutput.t73 a_n9628_8799.t59 vdd.t128 vdd.t52 sky130_fd_pr__pfet_01v8 ad=1.32 pd=8.33 as=1.32 ps=8.33 w=8 l=0.5
X30 a_n9628_8799.t22 a_n2982_13878.t75 a_n2982_8322.t27 vdd.t216 sky130_fd_pr__pfet_01v8 ad=1.485 pd=9.33 as=3.51 ps=18.78 w=9 l=0.5
X31 outputibias.t7 outputibias.t6 gnd.t34 gnd.t33 sky130_fd_pr__nfet_01v8 ad=2.34 pd=12.78 as=2.34 ps=12.78 w=6 l=2
X32 CSoutput.t104 commonsourceibias.t51 gnd.t271 gnd.t201 sky130_fd_pr__nfet_01v8 ad=1.155 pd=7.33 as=1.155 ps=7.33 w=7 l=1
X33 gnd.t270 commonsourceibias.t16 commonsourceibias.t17 gnd.t246 sky130_fd_pr__nfet_01v8 ad=1.155 pd=7.33 as=1.155 ps=7.33 w=7 l=1
X34 output.t14 CSoutput.t169 vdd.t9 gnd.t18 sky130_fd_pr__nfet_01v8 ad=0.825 pd=5.33 as=0.825 ps=5.33 w=5 l=1
X35 a_n3106_n452.t29 plus.t8 a_n9628_8799.t0 gnd.t3 sky130_fd_pr__nfet_01v8 ad=1.155 pd=7.33 as=1.155 ps=7.33 w=7 l=0.9
X36 outputibias.t5 outputibias.t4 gnd.t291 gnd.t290 sky130_fd_pr__nfet_01v8 ad=2.34 pd=12.78 as=2.34 ps=12.78 w=6 l=2
X37 CSoutput.t103 commonsourceibias.t52 gnd.t269 gnd.t197 sky130_fd_pr__nfet_01v8 ad=1.155 pd=7.33 as=1.155 ps=7.33 w=7 l=1
X38 CSoutput.t150 a_n9628_8799.t60 vdd.t290 vdd.t76 sky130_fd_pr__pfet_01v8 ad=1.32 pd=8.33 as=1.32 ps=8.33 w=8 l=0.5
X39 a_n3106_n452.t55 diffpairibias.t16 gnd.t287 gnd.t286 sky130_fd_pr__nfet_01v8 ad=2.73 pd=14.78 as=2.73 ps=14.78 w=7 l=1
X40 a_n3106_n452.t38 minus.t7 a_n2982_13878.t11 gnd.t35 sky130_fd_pr__nfet_01v8 ad=1.155 pd=7.33 as=1.155 ps=7.33 w=7 l=0.9
X41 CSoutput.t151 a_n9628_8799.t61 vdd.t291 vdd.t120 sky130_fd_pr__pfet_01v8 ad=1.32 pd=8.33 as=1.32 ps=8.33 w=8 l=0.5
X42 vdd.t304 a_n9628_8799.t62 CSoutput.t164 vdd.t72 sky130_fd_pr__pfet_01v8 ad=1.32 pd=8.33 as=1.32 ps=8.33 w=8 l=0.5
X43 vdd.t305 a_n9628_8799.t63 CSoutput.t165 vdd.t20 sky130_fd_pr__pfet_01v8 ad=1.32 pd=8.33 as=1.32 ps=8.33 w=8 l=0.5
X44 CSoutput.t170 a_n2982_8322.t5 sky130_fd_pr__cap_mim_m3_1 l=12 w=12
X45 CSoutput.t102 commonsourceibias.t53 gnd.t268 gnd.t184 sky130_fd_pr__nfet_01v8 ad=1.155 pd=7.33 as=1.155 ps=7.33 w=7 l=1
X46 vdd.t214 vdd.t212 vdd.t213 vdd.t203 sky130_fd_pr__pfet_01v8 ad=3.12 pd=16.78 as=0 ps=0 w=8 l=0.5
X47 outputibias.t3 outputibias.t2 gnd.t179 gnd.t178 sky130_fd_pr__nfet_01v8 ad=2.34 pd=12.78 as=2.34 ps=12.78 w=6 l=2
X48 vdd.t98 a_n9628_8799.t64 CSoutput.t48 vdd.t97 sky130_fd_pr__pfet_01v8 ad=1.32 pd=8.33 as=1.32 ps=8.33 w=8 l=0.5
X49 a_n2804_13878.t30 a_n2982_13878.t61 a_n2982_13878.t62 vdd.t224 sky130_fd_pr__pfet_01v8 ad=1.485 pd=9.33 as=1.485 ps=9.33 w=9 l=0.5
X50 CSoutput.t101 commonsourceibias.t54 gnd.t267 gnd.t253 sky130_fd_pr__nfet_01v8 ad=1.155 pd=7.33 as=2.73 ps=14.78 w=7 l=1
X51 vdd.t211 vdd.t209 vdd.t210 vdd.t203 sky130_fd_pr__pfet_01v8 ad=3.12 pd=16.78 as=0 ps=0 w=8 l=0.5
X52 a_n2982_13878.t56 a_n2982_13878.t55 a_n2804_13878.t29 vdd.t237 sky130_fd_pr__pfet_01v8 ad=1.485 pd=9.33 as=1.485 ps=9.33 w=9 l=0.5
X53 gnd.t153 gnd.t151 gnd.t152 gnd.t95 sky130_fd_pr__nfet_01v8 ad=2.73 pd=14.78 as=0 ps=0 w=7 l=0.9
X54 CSoutput.t49 a_n9628_8799.t65 vdd.t99 vdd.t40 sky130_fd_pr__pfet_01v8 ad=1.32 pd=8.33 as=1.32 ps=8.33 w=8 l=0.5
X55 gnd.t150 gnd.t147 gnd.t149 gnd.t148 sky130_fd_pr__nfet_01v8 ad=2.34 pd=12.78 as=0 ps=0 w=6 l=2
X56 vdd.t208 vdd.t206 vdd.t207 vdd.t185 sky130_fd_pr__pfet_01v8 ad=3.51 pd=18.78 as=0 ps=0 w=9 l=0.5
X57 a_n3106_n452.t28 plus.t9 a_n9628_8799.t2 gnd.t0 sky130_fd_pr__nfet_01v8 ad=1.155 pd=7.33 as=1.155 ps=7.33 w=7 l=0.9
X58 vdd.t57 a_n9628_8799.t66 CSoutput.t22 vdd.t27 sky130_fd_pr__pfet_01v8 ad=3.12 pd=16.78 as=1.32 ps=8.33 w=8 l=0.5
X59 vdd.t58 a_n9628_8799.t67 CSoutput.t23 vdd.t38 sky130_fd_pr__pfet_01v8 ad=1.32 pd=8.33 as=1.32 ps=8.33 w=8 l=0.5
X60 diffpairibias.t15 diffpairibias.t14 gnd.t285 gnd.t284 sky130_fd_pr__nfet_01v8 ad=2.73 pd=14.78 as=2.73 ps=14.78 w=7 l=1
X61 a_n3106_n452.t27 plus.t10 a_n9628_8799.t47 gnd.t24 sky130_fd_pr__nfet_01v8 ad=1.155 pd=7.33 as=1.155 ps=7.33 w=7 l=0.9
X62 CSoutput.t24 a_n9628_8799.t68 vdd.t60 vdd.t59 sky130_fd_pr__pfet_01v8 ad=1.32 pd=8.33 as=1.32 ps=8.33 w=8 l=0.5
X63 a_n3106_n452.t35 minus.t8 a_n2982_13878.t9 gnd.t40 sky130_fd_pr__nfet_01v8 ad=2.73 pd=14.78 as=1.155 ps=7.33 w=7 l=0.9
X64 gnd.t146 gnd.t144 gnd.t145 gnd.t141 sky130_fd_pr__nfet_01v8 ad=2.73 pd=14.78 as=0 ps=0 w=7 l=1
X65 a_n2982_13878.t54 a_n2982_13878.t53 a_n2804_13878.t28 vdd.t252 sky130_fd_pr__pfet_01v8 ad=1.485 pd=9.33 as=1.485 ps=9.33 w=9 l=0.5
X66 CSoutput.t25 a_n9628_8799.t69 vdd.t62 vdd.t61 sky130_fd_pr__pfet_01v8 ad=1.32 pd=8.33 as=1.32 ps=8.33 w=8 l=0.5
X67 vdd.t288 a_n9628_8799.t70 CSoutput.t148 vdd.t84 sky130_fd_pr__pfet_01v8 ad=1.32 pd=8.33 as=1.32 ps=8.33 w=8 l=0.5
X68 a_n9628_8799.t33 a_n2982_13878.t76 a_n2982_8322.t26 vdd.t247 sky130_fd_pr__pfet_01v8 ad=1.485 pd=9.33 as=1.485 ps=9.33 w=9 l=0.5
X69 CSoutput.t149 a_n9628_8799.t71 vdd.t289 vdd.t55 sky130_fd_pr__pfet_01v8 ad=1.32 pd=8.33 as=1.32 ps=8.33 w=8 l=0.5
X70 CSoutput.t171 a_n2982_8322.t4 sky130_fd_pr__cap_mim_m3_1 l=12 w=12
X71 a_n2982_13878.t44 a_n2982_13878.t43 a_n2804_13878.t27 vdd.t268 sky130_fd_pr__pfet_01v8 ad=1.485 pd=9.33 as=1.485 ps=9.33 w=9 l=0.5
X72 vdd.t35 a_n9628_8799.t72 CSoutput.t10 vdd.t34 sky130_fd_pr__pfet_01v8 ad=1.32 pd=8.33 as=1.32 ps=8.33 w=8 l=0.5
X73 vdd.t37 a_n9628_8799.t73 CSoutput.t11 vdd.t36 sky130_fd_pr__pfet_01v8 ad=1.32 pd=8.33 as=1.32 ps=8.33 w=8 l=0.5
X74 a_n9628_8799.t21 a_n2982_13878.t77 a_n2982_8322.t25 vdd.t245 sky130_fd_pr__pfet_01v8 ad=1.485 pd=9.33 as=1.485 ps=9.33 w=9 l=0.5
X75 CSoutput.t46 a_n9628_8799.t74 vdd.t95 vdd.t52 sky130_fd_pr__pfet_01v8 ad=1.32 pd=8.33 as=1.32 ps=8.33 w=8 l=0.5
X76 gnd.t266 commonsourceibias.t55 CSoutput.t100 gnd.t249 sky130_fd_pr__nfet_01v8 ad=1.155 pd=7.33 as=1.155 ps=7.33 w=7 l=1
X77 diffpairibias.t13 diffpairibias.t12 gnd.t171 gnd.t170 sky130_fd_pr__nfet_01v8 ad=2.73 pd=14.78 as=2.73 ps=14.78 w=7 l=1
X78 gnd.t265 commonsourceibias.t56 CSoutput.t99 gnd.t182 sky130_fd_pr__nfet_01v8 ad=1.155 pd=7.33 as=1.155 ps=7.33 w=7 l=1
X79 CSoutput.t47 a_n9628_8799.t75 vdd.t96 vdd.t42 sky130_fd_pr__pfet_01v8 ad=1.32 pd=8.33 as=1.32 ps=8.33 w=8 l=0.5
X80 commonsourceibias.t15 commonsourceibias.t14 gnd.t264 gnd.t201 sky130_fd_pr__nfet_01v8 ad=1.155 pd=7.33 as=1.155 ps=7.33 w=7 l=1
X81 a_n9628_8799.t27 a_n2982_13878.t78 a_n2982_8322.t24 vdd.t260 sky130_fd_pr__pfet_01v8 ad=1.485 pd=9.33 as=1.485 ps=9.33 w=9 l=0.5
X82 gnd.t263 commonsourceibias.t57 CSoutput.t98 gnd.t246 sky130_fd_pr__nfet_01v8 ad=1.155 pd=7.33 as=1.155 ps=7.33 w=7 l=1
X83 a_n2982_8322.t23 a_n2982_13878.t79 a_n9628_8799.t39 vdd.t268 sky130_fd_pr__pfet_01v8 ad=1.485 pd=9.33 as=1.485 ps=9.33 w=9 l=0.5
X84 CSoutput.t74 a_n9628_8799.t76 vdd.t129 vdd.t104 sky130_fd_pr__pfet_01v8 ad=1.32 pd=8.33 as=1.32 ps=8.33 w=8 l=0.5
X85 a_n3106_n452.t54 minus.t9 a_n2982_13878.t71 gnd.t180 sky130_fd_pr__nfet_01v8 ad=1.155 pd=7.33 as=1.155 ps=7.33 w=7 l=0.9
X86 a_n3106_n452.t26 plus.t11 a_n9628_8799.t10 gnd.t23 sky130_fd_pr__nfet_01v8 ad=2.73 pd=14.78 as=1.155 ps=7.33 w=7 l=0.9
X87 commonsourceibias.t41 commonsourceibias.t40 gnd.t262 gnd.t216 sky130_fd_pr__nfet_01v8 ad=1.155 pd=7.33 as=1.155 ps=7.33 w=7 l=1
X88 a_n9628_8799.t19 plus.t12 a_n3106_n452.t25 gnd.t181 sky130_fd_pr__nfet_01v8 ad=1.155 pd=7.33 as=1.155 ps=7.33 w=7 l=0.9
X89 gnd.t261 commonsourceibias.t58 CSoutput.t125 gnd.t243 sky130_fd_pr__nfet_01v8 ad=1.155 pd=7.33 as=1.155 ps=7.33 w=7 l=1
X90 vdd.t205 vdd.t202 vdd.t204 vdd.t203 sky130_fd_pr__pfet_01v8 ad=3.12 pd=16.78 as=0 ps=0 w=8 l=0.5
X91 gnd.t260 commonsourceibias.t38 commonsourceibias.t39 gnd.t243 sky130_fd_pr__nfet_01v8 ad=1.155 pd=7.33 as=1.155 ps=7.33 w=7 l=1
X92 a_n3106_n452.t40 diffpairibias.t17 gnd.t50 gnd.t49 sky130_fd_pr__nfet_01v8 ad=2.73 pd=14.78 as=2.73 ps=14.78 w=7 l=1
X93 CSoutput.t75 a_n9628_8799.t77 vdd.t130 vdd.t59 sky130_fd_pr__pfet_01v8 ad=1.32 pd=8.33 as=1.32 ps=8.33 w=8 l=0.5
X94 vdd.t286 a_n9628_8799.t78 CSoutput.t146 vdd.t29 sky130_fd_pr__pfet_01v8 ad=1.32 pd=8.33 as=1.32 ps=8.33 w=8 l=0.5
X95 vdd.t287 a_n9628_8799.t79 CSoutput.t147 vdd.t283 sky130_fd_pr__pfet_01v8 ad=1.32 pd=8.33 as=1.32 ps=8.33 w=8 l=0.5
X96 a_n2982_13878.t42 a_n2982_13878.t41 a_n2804_13878.t26 vdd.t267 sky130_fd_pr__pfet_01v8 ad=1.485 pd=9.33 as=1.485 ps=9.33 w=9 l=0.5
X97 a_n3106_n452.t24 plus.t13 a_n9628_8799.t15 gnd.t169 sky130_fd_pr__nfet_01v8 ad=1.155 pd=7.33 as=1.155 ps=7.33 w=7 l=0.9
X98 vdd.t302 a_n9628_8799.t80 CSoutput.t162 vdd.t86 sky130_fd_pr__pfet_01v8 ad=1.32 pd=8.33 as=1.32 ps=8.33 w=8 l=0.5
X99 a_n9628_8799.t44 a_n2982_13878.t80 a_n2982_8322.t22 vdd.t256 sky130_fd_pr__pfet_01v8 ad=1.485 pd=9.33 as=1.485 ps=9.33 w=9 l=0.5
X100 a_n2982_13878.t68 a_n2982_13878.t67 a_n2804_13878.t25 vdd.t219 sky130_fd_pr__pfet_01v8 ad=3.51 pd=18.78 as=1.485 ps=9.33 w=9 l=0.5
X101 gnd.t259 commonsourceibias.t36 commonsourceibias.t37 gnd.t239 sky130_fd_pr__nfet_01v8 ad=2.73 pd=14.78 as=1.155 ps=7.33 w=7 l=1
X102 commonsourceibias.t35 commonsourceibias.t34 gnd.t258 gnd.t184 sky130_fd_pr__nfet_01v8 ad=1.155 pd=7.33 as=1.155 ps=7.33 w=7 l=1
X103 CSoutput.t124 commonsourceibias.t59 gnd.t257 gnd.t197 sky130_fd_pr__nfet_01v8 ad=1.155 pd=7.33 as=1.155 ps=7.33 w=7 l=1
X104 output.t13 CSoutput.t172 vdd.t4 gnd.t17 sky130_fd_pr__nfet_01v8 ad=0.825 pd=5.33 as=0.825 ps=5.33 w=5 l=1
X105 vdd.t303 a_n9628_8799.t81 CSoutput.t163 vdd.t68 sky130_fd_pr__pfet_01v8 ad=3.12 pd=16.78 as=1.32 ps=8.33 w=8 l=0.5
X106 CSoutput.t44 a_n9628_8799.t82 vdd.t92 vdd.t61 sky130_fd_pr__pfet_01v8 ad=1.32 pd=8.33 as=1.32 ps=8.33 w=8 l=0.5
X107 a_n2982_13878.t13 minus.t10 a_n3106_n452.t41 gnd.t30 sky130_fd_pr__nfet_01v8 ad=1.155 pd=7.33 as=2.73 ps=14.78 w=7 l=0.9
X108 CSoutput.t45 a_n9628_8799.t83 vdd.t94 vdd.t93 sky130_fd_pr__pfet_01v8 ad=1.32 pd=8.33 as=3.12 ps=16.78 w=8 l=0.5
X109 vdd.t201 vdd.t199 vdd.t200 vdd.t192 sky130_fd_pr__pfet_01v8 ad=3.51 pd=18.78 as=0 ps=0 w=9 l=0.5
X110 CSoutput.t84 commonsourceibias.t60 gnd.t191 gnd.t190 sky130_fd_pr__nfet_01v8 ad=1.155 pd=7.33 as=1.155 ps=7.33 w=7 l=1
X111 CSoutput.t70 a_n9628_8799.t84 vdd.t125 vdd.t42 sky130_fd_pr__pfet_01v8 ad=1.32 pd=8.33 as=1.32 ps=8.33 w=8 l=0.5
X112 vdd.t198 vdd.t195 vdd.t197 vdd.t196 sky130_fd_pr__pfet_01v8 ad=3.51 pd=18.78 as=0 ps=0 w=9 l=0.5
X113 gnd.t256 commonsourceibias.t61 CSoutput.t123 gnd.t239 sky130_fd_pr__nfet_01v8 ad=2.73 pd=14.78 as=1.155 ps=7.33 w=7 l=1
X114 commonsourceibias.t33 commonsourceibias.t32 gnd.t255 gnd.t214 sky130_fd_pr__nfet_01v8 ad=1.155 pd=7.33 as=1.155 ps=7.33 w=7 l=1
X115 gnd.t143 gnd.t140 gnd.t142 gnd.t141 sky130_fd_pr__nfet_01v8 ad=2.73 pd=14.78 as=0 ps=0 w=7 l=1
X116 CSoutput.t122 commonsourceibias.t62 gnd.t254 gnd.t253 sky130_fd_pr__nfet_01v8 ad=1.155 pd=7.33 as=2.73 ps=14.78 w=7 l=1
X117 CSoutput.t71 a_n9628_8799.t85 vdd.t126 vdd.t44 sky130_fd_pr__pfet_01v8 ad=1.32 pd=8.33 as=1.32 ps=8.33 w=8 l=0.5
X118 a_n2804_13878.t24 a_n2982_13878.t65 a_n2982_13878.t66 vdd.t229 sky130_fd_pr__pfet_01v8 ad=1.485 pd=9.33 as=3.51 ps=18.78 w=9 l=0.5
X119 vdd.t284 a_n9628_8799.t86 CSoutput.t144 vdd.t283 sky130_fd_pr__pfet_01v8 ad=1.32 pd=8.33 as=1.32 ps=8.33 w=8 l=0.5
X120 vdd.t264 a_n2982_13878.t81 a_n2982_8322.t37 vdd.t263 sky130_fd_pr__pfet_01v8 ad=1.485 pd=9.33 as=1.485 ps=9.33 w=9 l=0.5
X121 a_n2982_13878.t40 a_n2982_13878.t39 a_n2804_13878.t23 vdd.t227 sky130_fd_pr__pfet_01v8 ad=1.485 pd=9.33 as=1.485 ps=9.33 w=9 l=0.5
X122 a_n2982_8322.t36 a_n2982_13878.t82 vdd.t266 vdd.t265 sky130_fd_pr__pfet_01v8 ad=1.485 pd=9.33 as=1.485 ps=9.33 w=9 l=0.5
X123 a_n3106_n452.t51 diffpairibias.t18 gnd.t281 gnd.t280 sky130_fd_pr__nfet_01v8 ad=2.73 pd=14.78 as=2.73 ps=14.78 w=7 l=1
X124 CSoutput.t145 a_n9628_8799.t87 vdd.t285 vdd.t104 sky130_fd_pr__pfet_01v8 ad=1.32 pd=8.33 as=1.32 ps=8.33 w=8 l=0.5
X125 gnd.t139 gnd.t137 gnd.t138 gnd.t66 sky130_fd_pr__nfet_01v8 ad=2.73 pd=14.78 as=0 ps=0 w=7 l=0.9
X126 gnd.t136 gnd.t134 minus.t4 gnd.t135 sky130_fd_pr__nfet_01v8 ad=0.39 pd=2.78 as=0.165 ps=1.33 w=1 l=0.5
X127 commonsourceibias.t31 commonsourceibias.t30 gnd.t252 gnd.t190 sky130_fd_pr__nfet_01v8 ad=1.155 pd=7.33 as=1.155 ps=7.33 w=7 l=1
X128 vdd.t262 a_n2982_13878.t83 a_n2804_13878.t6 vdd.t261 sky130_fd_pr__pfet_01v8 ad=1.485 pd=9.33 as=1.485 ps=9.33 w=9 l=0.5
X129 vdd.t194 vdd.t191 vdd.t193 vdd.t192 sky130_fd_pr__pfet_01v8 ad=3.51 pd=18.78 as=0 ps=0 w=9 l=0.5
X130 a_n2804_13878.t22 a_n2982_13878.t37 a_n2982_13878.t38 vdd.t260 sky130_fd_pr__pfet_01v8 ad=1.485 pd=9.33 as=1.485 ps=9.33 w=9 l=0.5
X131 vdd.t300 a_n9628_8799.t88 CSoutput.t160 vdd.t283 sky130_fd_pr__pfet_01v8 ad=1.32 pd=8.33 as=1.32 ps=8.33 w=8 l=0.5
X132 vdd.t301 a_n9628_8799.t89 CSoutput.t161 vdd.t86 sky130_fd_pr__pfet_01v8 ad=1.32 pd=8.33 as=1.32 ps=8.33 w=8 l=0.5
X133 gnd.t251 commonsourceibias.t63 CSoutput.t112 gnd.t182 sky130_fd_pr__nfet_01v8 ad=1.155 pd=7.33 as=1.155 ps=7.33 w=7 l=1
X134 a_n2982_8322.t21 a_n2982_13878.t84 a_n9628_8799.t24 vdd.t246 sky130_fd_pr__pfet_01v8 ad=1.485 pd=9.33 as=1.485 ps=9.33 w=9 l=0.5
X135 gnd.t250 commonsourceibias.t20 commonsourceibias.t21 gnd.t249 sky130_fd_pr__nfet_01v8 ad=1.155 pd=7.33 as=1.155 ps=7.33 w=7 l=1
X136 gnd.t133 gnd.t131 plus.t3 gnd.t132 sky130_fd_pr__nfet_01v8 ad=0.39 pd=2.78 as=0.165 ps=1.33 w=1 l=0.5
X137 a_n9628_8799.t1 plus.t14 a_n3106_n452.t23 gnd.t20 sky130_fd_pr__nfet_01v8 ad=1.155 pd=7.33 as=2.73 ps=14.78 w=7 l=0.9
X138 vdd.t5 CSoutput.t173 output.t12 gnd.t16 sky130_fd_pr__nfet_01v8 ad=0.825 pd=5.33 as=0.825 ps=5.33 w=5 l=1
X139 vdd.t190 vdd.t188 vdd.t189 vdd.t165 sky130_fd_pr__pfet_01v8 ad=3.12 pd=16.78 as=0 ps=0 w=8 l=0.5
X140 a_n2982_13878.t10 minus.t11 a_n3106_n452.t37 gnd.t43 sky130_fd_pr__nfet_01v8 ad=1.155 pd=7.33 as=1.155 ps=7.33 w=7 l=0.9
X141 vdd.t187 vdd.t184 vdd.t186 vdd.t185 sky130_fd_pr__pfet_01v8 ad=3.51 pd=18.78 as=0 ps=0 w=9 l=0.5
X142 a_n2982_8322.t35 a_n2982_13878.t85 vdd.t259 vdd.t258 sky130_fd_pr__pfet_01v8 ad=3.51 pd=18.78 as=1.485 ps=9.33 w=9 l=0.5
X143 gnd.t248 commonsourceibias.t64 CSoutput.t111 gnd.t220 sky130_fd_pr__nfet_01v8 ad=2.73 pd=14.78 as=1.155 ps=7.33 w=7 l=1
X144 output.t11 CSoutput.t174 vdd.t19 gnd.t15 sky130_fd_pr__nfet_01v8 ad=0.825 pd=5.33 as=0.825 ps=5.33 w=5 l=1
X145 gnd.t247 commonsourceibias.t65 CSoutput.t110 gnd.t246 sky130_fd_pr__nfet_01v8 ad=1.155 pd=7.33 as=1.155 ps=7.33 w=7 l=1
X146 a_n9628_8799.t41 a_n2982_13878.t86 a_n2982_8322.t20 vdd.t226 sky130_fd_pr__pfet_01v8 ad=1.485 pd=9.33 as=1.485 ps=9.33 w=9 l=0.5
X147 a_n9628_8799.t3 plus.t15 a_n3106_n452.t22 gnd.t29 sky130_fd_pr__nfet_01v8 ad=1.155 pd=7.33 as=1.155 ps=7.33 w=7 l=0.9
X148 CSoutput.t42 a_n9628_8799.t90 vdd.t90 vdd.t89 sky130_fd_pr__pfet_01v8 ad=1.32 pd=8.33 as=1.32 ps=8.33 w=8 l=0.5
X149 diffpairibias.t11 diffpairibias.t10 gnd.t289 gnd.t288 sky130_fd_pr__nfet_01v8 ad=2.73 pd=14.78 as=2.73 ps=14.78 w=7 l=1
X150 a_n2982_13878.t8 minus.t12 a_n3106_n452.t34 gnd.t31 sky130_fd_pr__nfet_01v8 ad=1.155 pd=7.33 as=1.155 ps=7.33 w=7 l=0.9
X151 vdd.t91 a_n9628_8799.t91 CSoutput.t43 vdd.t36 sky130_fd_pr__pfet_01v8 ad=1.32 pd=8.33 as=1.32 ps=8.33 w=8 l=0.5
X152 a_n2982_13878.t32 a_n2982_13878.t31 a_n2804_13878.t21 vdd.t238 sky130_fd_pr__pfet_01v8 ad=1.485 pd=9.33 as=1.485 ps=9.33 w=9 l=0.5
X153 a_n9628_8799.t28 a_n2982_13878.t87 a_n2982_8322.t19 vdd.t257 sky130_fd_pr__pfet_01v8 ad=1.485 pd=9.33 as=1.485 ps=9.33 w=9 l=0.5
X154 CSoutput.t142 a_n9628_8799.t92 vdd.t281 vdd.t61 sky130_fd_pr__pfet_01v8 ad=1.32 pd=8.33 as=1.32 ps=8.33 w=8 l=0.5
X155 CSoutput.t143 a_n9628_8799.t93 vdd.t282 vdd.t0 sky130_fd_pr__pfet_01v8 ad=1.32 pd=8.33 as=1.32 ps=8.33 w=8 l=0.5
X156 gnd.t245 commonsourceibias.t66 CSoutput.t109 gnd.t232 sky130_fd_pr__nfet_01v8 ad=1.155 pd=7.33 as=1.155 ps=7.33 w=7 l=1
X157 a_n2804_13878.t20 a_n2982_13878.t29 a_n2982_13878.t30 vdd.t256 sky130_fd_pr__pfet_01v8 ad=1.485 pd=9.33 as=1.485 ps=9.33 w=9 l=0.5
X158 gnd.t244 commonsourceibias.t67 CSoutput.t108 gnd.t243 sky130_fd_pr__nfet_01v8 ad=1.155 pd=7.33 as=1.155 ps=7.33 w=7 l=1
X159 a_n3106_n452.t53 minus.t13 a_n2982_13878.t70 gnd.t39 sky130_fd_pr__nfet_01v8 ad=1.155 pd=7.33 as=1.155 ps=7.33 w=7 l=0.9
X160 vdd.t183 vdd.t181 vdd.t182 vdd.t144 sky130_fd_pr__pfet_01v8 ad=3.51 pd=18.78 as=0 ps=0 w=9 l=0.5
X161 CSoutput.t156 a_n9628_8799.t94 vdd.t296 vdd.t55 sky130_fd_pr__pfet_01v8 ad=1.32 pd=8.33 as=1.32 ps=8.33 w=8 l=0.5
X162 vdd.t255 a_n2982_13878.t88 a_n2982_8322.t34 vdd.t254 sky130_fd_pr__pfet_01v8 ad=1.485 pd=9.33 as=3.51 ps=18.78 w=9 l=0.5
X163 CSoutput.t90 commonsourceibias.t68 gnd.t189 gnd.t188 sky130_fd_pr__nfet_01v8 ad=1.155 pd=7.33 as=1.155 ps=7.33 w=7 l=1
X164 a_n2804_13878.t19 a_n2982_13878.t27 a_n2982_13878.t28 vdd.t253 sky130_fd_pr__pfet_01v8 ad=1.485 pd=9.33 as=1.485 ps=9.33 w=9 l=0.5
X165 vdd.t297 a_n9628_8799.t95 CSoutput.t157 vdd.t107 sky130_fd_pr__pfet_01v8 ad=1.32 pd=8.33 as=1.32 ps=8.33 w=8 l=0.5
X166 vdd.t67 a_n9628_8799.t96 CSoutput.t28 vdd.t63 sky130_fd_pr__pfet_01v8 ad=1.32 pd=8.33 as=1.32 ps=8.33 w=8 l=0.5
X167 a_n2982_13878.t69 minus.t14 a_n3106_n452.t52 gnd.t51 sky130_fd_pr__nfet_01v8 ad=1.155 pd=7.33 as=1.155 ps=7.33 w=7 l=0.9
X168 a_n3106_n452.t21 plus.t16 a_n9628_8799.t9 gnd.t38 sky130_fd_pr__nfet_01v8 ad=1.155 pd=7.33 as=1.155 ps=7.33 w=7 l=0.9
X169 a_n2982_13878.t26 a_n2982_13878.t25 a_n2804_13878.t18 vdd.t223 sky130_fd_pr__pfet_01v8 ad=1.485 pd=9.33 as=1.485 ps=9.33 w=9 l=0.5
X170 outputibias.t1 outputibias.t0 gnd.t163 gnd.t162 sky130_fd_pr__nfet_01v8 ad=2.34 pd=12.78 as=2.34 ps=12.78 w=6 l=2
X171 vdd.t69 a_n9628_8799.t97 CSoutput.t29 vdd.t68 sky130_fd_pr__pfet_01v8 ad=3.12 pd=16.78 as=1.32 ps=8.33 w=8 l=0.5
X172 vdd.t75 a_n9628_8799.t98 CSoutput.t32 vdd.t74 sky130_fd_pr__pfet_01v8 ad=1.32 pd=8.33 as=1.32 ps=8.33 w=8 l=0.5
X173 CSoutput.t33 a_n9628_8799.t99 vdd.t77 vdd.t76 sky130_fd_pr__pfet_01v8 ad=1.32 pd=8.33 as=1.32 ps=8.33 w=8 l=0.5
X174 a_n3106_n452.t50 diffpairibias.t19 gnd.t279 gnd.t278 sky130_fd_pr__nfet_01v8 ad=2.73 pd=14.78 as=2.73 ps=14.78 w=7 l=1
X175 gnd.t130 gnd.t127 gnd.t129 gnd.t128 sky130_fd_pr__nfet_01v8 ad=2.73 pd=14.78 as=0 ps=0 w=7 l=1
X176 vdd.t180 vdd.t178 vdd.t179 vdd.t152 sky130_fd_pr__pfet_01v8 ad=3.12 pd=16.78 as=0 ps=0 w=8 l=0.5
X177 a_n3106_n452.t3 diffpairibias.t20 gnd.t22 gnd.t21 sky130_fd_pr__nfet_01v8 ad=2.73 pd=14.78 as=2.73 ps=14.78 w=7 l=1
X178 output.t10 CSoutput.t175 vdd.t18 gnd.t14 sky130_fd_pr__nfet_01v8 ad=1.95 pd=10.78 as=0.825 ps=5.33 w=5 l=1
X179 a_n9628_8799.t16 plus.t17 a_n3106_n452.t20 gnd.t164 sky130_fd_pr__nfet_01v8 ad=1.155 pd=7.33 as=1.155 ps=7.33 w=7 l=0.9
X180 vdd.t275 a_n9628_8799.t100 CSoutput.t136 vdd.t107 sky130_fd_pr__pfet_01v8 ad=1.32 pd=8.33 as=1.32 ps=8.33 w=8 l=0.5
X181 vdd.t16 CSoutput.t176 output.t9 gnd.t13 sky130_fd_pr__nfet_01v8 ad=0.825 pd=5.33 as=0.825 ps=5.33 w=5 l=1
X182 CSoutput.t107 commonsourceibias.t69 gnd.t242 gnd.t193 sky130_fd_pr__nfet_01v8 ad=1.155 pd=7.33 as=1.155 ps=7.33 w=7 l=1
X183 CSoutput.t106 commonsourceibias.t70 gnd.t241 gnd.t190 sky130_fd_pr__nfet_01v8 ad=1.155 pd=7.33 as=1.155 ps=7.33 w=7 l=1
X184 vdd.t276 a_n9628_8799.t101 CSoutput.t137 vdd.t29 sky130_fd_pr__pfet_01v8 ad=1.32 pd=8.33 as=1.32 ps=8.33 w=8 l=0.5
X185 CSoutput.t8 a_n9628_8799.t102 vdd.t32 vdd.t31 sky130_fd_pr__pfet_01v8 ad=1.32 pd=8.33 as=1.32 ps=8.33 w=8 l=0.5
X186 gnd.t240 commonsourceibias.t71 CSoutput.t97 gnd.t239 sky130_fd_pr__nfet_01v8 ad=2.73 pd=14.78 as=1.155 ps=7.33 w=7 l=1
X187 output.t16 outputibias.t8 gnd.t48 gnd.t47 sky130_fd_pr__nfet_01v8 ad=2.34 pd=12.78 as=2.34 ps=12.78 w=6 l=2
X188 vdd.t177 vdd.t175 vdd.t176 vdd.t165 sky130_fd_pr__pfet_01v8 ad=3.12 pd=16.78 as=0 ps=0 w=8 l=0.5
X189 CSoutput.t96 commonsourceibias.t72 gnd.t238 gnd.t212 sky130_fd_pr__nfet_01v8 ad=1.155 pd=7.33 as=1.155 ps=7.33 w=7 l=1
X190 a_n9628_8799.t6 plus.t18 a_n3106_n452.t19 gnd.t26 sky130_fd_pr__nfet_01v8 ad=1.155 pd=7.33 as=1.155 ps=7.33 w=7 l=0.9
X191 a_n2804_13878.t17 a_n2982_13878.t35 a_n2982_13878.t36 vdd.t228 sky130_fd_pr__pfet_01v8 ad=1.485 pd=9.33 as=1.485 ps=9.33 w=9 l=0.5
X192 a_n2982_8322.t18 a_n2982_13878.t89 a_n9628_8799.t29 vdd.t252 sky130_fd_pr__pfet_01v8 ad=1.485 pd=9.33 as=1.485 ps=9.33 w=9 l=0.5
X193 CSoutput.t9 a_n9628_8799.t103 vdd.t33 vdd.t0 sky130_fd_pr__pfet_01v8 ad=1.32 pd=8.33 as=1.32 ps=8.33 w=8 l=0.5
X194 CSoutput.t20 a_n9628_8799.t104 vdd.t54 vdd.t22 sky130_fd_pr__pfet_01v8 ad=1.32 pd=8.33 as=1.32 ps=8.33 w=8 l=0.5
X195 output.t17 outputibias.t9 gnd.t161 gnd.t160 sky130_fd_pr__nfet_01v8 ad=2.34 pd=12.78 as=2.34 ps=12.78 w=6 l=2
X196 minus.t3 gnd.t124 gnd.t126 gnd.t125 sky130_fd_pr__nfet_01v8 ad=0.165 pd=1.33 as=0.165 ps=1.33 w=1 l=0.5
X197 gnd.t123 gnd.t121 gnd.t122 gnd.t91 sky130_fd_pr__nfet_01v8 ad=2.73 pd=14.78 as=0 ps=0 w=7 l=1
X198 CSoutput.t177 a_n2982_8322.t3 sky130_fd_pr__cap_mim_m3_1 l=12 w=12
X199 diffpairibias.t9 diffpairibias.t8 gnd.t46 gnd.t45 sky130_fd_pr__nfet_01v8 ad=2.73 pd=14.78 as=2.73 ps=14.78 w=7 l=1
X200 a_n2804_13878.t5 a_n2982_13878.t90 vdd.t251 vdd.t250 sky130_fd_pr__pfet_01v8 ad=1.485 pd=9.33 as=1.485 ps=9.33 w=9 l=0.5
X201 a_n2982_13878.t5 minus.t15 a_n3106_n452.t6 gnd.t25 sky130_fd_pr__nfet_01v8 ad=1.155 pd=7.33 as=1.155 ps=7.33 w=7 l=0.9
X202 vdd.t249 a_n2982_13878.t91 a_n2804_13878.t4 vdd.t248 sky130_fd_pr__pfet_01v8 ad=1.485 pd=9.33 as=1.485 ps=9.33 w=9 l=0.5
X203 CSoutput.t21 a_n9628_8799.t105 vdd.t56 vdd.t55 sky130_fd_pr__pfet_01v8 ad=1.32 pd=8.33 as=1.32 ps=8.33 w=8 l=0.5
X204 CSoutput.t178 a_n2982_8322.t2 sky130_fd_pr__cap_mim_m3_1 l=12 w=12
X205 a_n3106_n452.t18 plus.t19 a_n9628_8799.t8 gnd.t35 sky130_fd_pr__nfet_01v8 ad=1.155 pd=7.33 as=1.155 ps=7.33 w=7 l=0.9
X206 vdd.t6 CSoutput.t179 output.t8 gnd.t12 sky130_fd_pr__nfet_01v8 ad=0.825 pd=5.33 as=1.95 ps=10.78 w=5 l=1
X207 vdd.t108 a_n9628_8799.t106 CSoutput.t56 vdd.t107 sky130_fd_pr__pfet_01v8 ad=1.32 pd=8.33 as=1.32 ps=8.33 w=8 l=0.5
X208 vdd.t109 a_n9628_8799.t107 CSoutput.t57 vdd.t63 sky130_fd_pr__pfet_01v8 ad=1.32 pd=8.33 as=1.32 ps=8.33 w=8 l=0.5
X209 vdd.t87 a_n9628_8799.t108 CSoutput.t40 vdd.t86 sky130_fd_pr__pfet_01v8 ad=1.32 pd=8.33 as=1.32 ps=8.33 w=8 l=0.5
X210 gnd.t237 commonsourceibias.t73 CSoutput.t95 gnd.t224 sky130_fd_pr__nfet_01v8 ad=1.155 pd=7.33 as=1.155 ps=7.33 w=7 l=1
X211 CSoutput.t89 commonsourceibias.t74 gnd.t187 gnd.t186 sky130_fd_pr__nfet_01v8 ad=1.155 pd=7.33 as=2.73 ps=14.78 w=7 l=1
X212 CSoutput.t41 a_n9628_8799.t109 vdd.t88 vdd.t2 sky130_fd_pr__pfet_01v8 ad=1.32 pd=8.33 as=1.32 ps=8.33 w=8 l=0.5
X213 a_n2804_13878.t16 a_n2982_13878.t33 a_n2982_13878.t34 vdd.t247 sky130_fd_pr__pfet_01v8 ad=1.485 pd=9.33 as=1.485 ps=9.33 w=9 l=0.5
X214 gnd.t236 commonsourceibias.t12 commonsourceibias.t13 gnd.t203 sky130_fd_pr__nfet_01v8 ad=1.155 pd=7.33 as=1.155 ps=7.33 w=7 l=1
X215 gnd.t235 commonsourceibias.t75 CSoutput.t94 gnd.t220 sky130_fd_pr__nfet_01v8 ad=2.73 pd=14.78 as=1.155 ps=7.33 w=7 l=1
X216 vdd.t137 a_n9628_8799.t110 CSoutput.t82 vdd.t68 sky130_fd_pr__pfet_01v8 ad=3.12 pd=16.78 as=1.32 ps=8.33 w=8 l=0.5
X217 vdd.t138 a_n9628_8799.t111 CSoutput.t83 vdd.t74 sky130_fd_pr__pfet_01v8 ad=1.32 pd=8.33 as=1.32 ps=8.33 w=8 l=0.5
X218 vdd.t17 CSoutput.t180 output.t7 gnd.t11 sky130_fd_pr__nfet_01v8 ad=0.825 pd=5.33 as=0.825 ps=5.33 w=5 l=1
X219 CSoutput.t68 a_n9628_8799.t112 vdd.t123 vdd.t76 sky130_fd_pr__pfet_01v8 ad=1.32 pd=8.33 as=1.32 ps=8.33 w=8 l=0.5
X220 output.t6 CSoutput.t181 vdd.t10 gnd.t10 sky130_fd_pr__nfet_01v8 ad=0.825 pd=5.33 as=0.825 ps=5.33 w=5 l=1
X221 a_n3106_n452.t33 minus.t16 a_n2982_13878.t7 gnd.t32 sky130_fd_pr__nfet_01v8 ad=1.155 pd=7.33 as=1.155 ps=7.33 w=7 l=0.9
X222 gnd.t234 commonsourceibias.t76 CSoutput.t93 gnd.t232 sky130_fd_pr__nfet_01v8 ad=1.155 pd=7.33 as=1.155 ps=7.33 w=7 l=1
X223 a_n2982_8322.t17 a_n2982_13878.t92 a_n9628_8799.t30 vdd.t215 sky130_fd_pr__pfet_01v8 ad=1.485 pd=9.33 as=1.485 ps=9.33 w=9 l=0.5
X224 CSoutput.t69 a_n9628_8799.t113 vdd.t124 vdd.t48 sky130_fd_pr__pfet_01v8 ad=1.32 pd=8.33 as=3.12 ps=16.78 w=8 l=0.5
X225 a_n2982_13878.t48 a_n2982_13878.t47 a_n2804_13878.t15 vdd.t246 sky130_fd_pr__pfet_01v8 ad=1.485 pd=9.33 as=1.485 ps=9.33 w=9 l=0.5
X226 diffpairibias.t7 diffpairibias.t6 gnd.t173 gnd.t172 sky130_fd_pr__nfet_01v8 ad=2.73 pd=14.78 as=2.73 ps=14.78 w=7 l=1
X227 vdd.t28 a_n9628_8799.t114 CSoutput.t6 vdd.t27 sky130_fd_pr__pfet_01v8 ad=3.12 pd=16.78 as=1.32 ps=8.33 w=8 l=0.5
X228 a_n2804_13878.t14 a_n2982_13878.t45 a_n2982_13878.t46 vdd.t245 sky130_fd_pr__pfet_01v8 ad=1.485 pd=9.33 as=1.485 ps=9.33 w=9 l=0.5
X229 vdd.t244 a_n2982_13878.t93 a_n2982_8322.t33 vdd.t243 sky130_fd_pr__pfet_01v8 ad=1.485 pd=9.33 as=3.51 ps=18.78 w=9 l=0.5
X230 gnd.t233 commonsourceibias.t10 commonsourceibias.t11 gnd.t232 sky130_fd_pr__nfet_01v8 ad=1.155 pd=7.33 as=1.155 ps=7.33 w=7 l=1
X231 vdd.t30 a_n9628_8799.t115 CSoutput.t7 vdd.t29 sky130_fd_pr__pfet_01v8 ad=1.32 pd=8.33 as=1.32 ps=8.33 w=8 l=0.5
X232 gnd.t120 gnd.t117 gnd.t119 gnd.t118 sky130_fd_pr__nfet_01v8 ad=1.95 pd=10.78 as=0 ps=0 w=5 l=1
X233 gnd.t116 gnd.t114 gnd.t115 gnd.t59 sky130_fd_pr__nfet_01v8 ad=2.73 pd=14.78 as=0 ps=0 w=7 l=1
X234 gnd.t113 gnd.t111 gnd.t112 gnd.t91 sky130_fd_pr__nfet_01v8 ad=2.73 pd=14.78 as=0 ps=0 w=7 l=1
X235 a_n3106_n452.t5 minus.t17 a_n2982_13878.t4 gnd.t24 sky130_fd_pr__nfet_01v8 ad=1.155 pd=7.33 as=1.155 ps=7.33 w=7 l=0.9
X236 CSoutput.t92 commonsourceibias.t77 gnd.t231 gnd.t216 sky130_fd_pr__nfet_01v8 ad=1.155 pd=7.33 as=1.155 ps=7.33 w=7 l=1
X237 a_n3106_n452.t17 plus.t20 a_n9628_8799.t20 gnd.t40 sky130_fd_pr__nfet_01v8 ad=2.73 pd=14.78 as=1.155 ps=7.33 w=7 l=0.9
X238 a_n3106_n452.t49 minus.t18 a_n2982_13878.t20 gnd.t44 sky130_fd_pr__nfet_01v8 ad=1.155 pd=7.33 as=1.155 ps=7.33 w=7 l=0.9
X239 CSoutput.t91 commonsourceibias.t78 gnd.t230 gnd.t188 sky130_fd_pr__nfet_01v8 ad=1.155 pd=7.33 as=1.155 ps=7.33 w=7 l=1
X240 CSoutput.t66 a_n9628_8799.t116 vdd.t121 vdd.t120 sky130_fd_pr__pfet_01v8 ad=1.32 pd=8.33 as=1.32 ps=8.33 w=8 l=0.5
X241 a_n2804_13878.t3 a_n2982_13878.t94 vdd.t242 vdd.t241 sky130_fd_pr__pfet_01v8 ad=3.51 pd=18.78 as=1.485 ps=9.33 w=9 l=0.5
X242 vdd.t122 a_n9628_8799.t117 CSoutput.t67 vdd.t97 sky130_fd_pr__pfet_01v8 ad=1.32 pd=8.33 as=1.32 ps=8.33 w=8 l=0.5
X243 CSoutput.t0 a_n9628_8799.t118 vdd.t1 vdd.t0 sky130_fd_pr__pfet_01v8 ad=1.32 pd=8.33 as=1.32 ps=8.33 w=8 l=0.5
X244 CSoutput.t1 a_n9628_8799.t119 vdd.t3 vdd.t2 sky130_fd_pr__pfet_01v8 ad=1.32 pd=8.33 as=1.32 ps=8.33 w=8 l=0.5
X245 gnd.t229 commonsourceibias.t24 commonsourceibias.t25 gnd.t210 sky130_fd_pr__nfet_01v8 ad=1.155 pd=7.33 as=1.155 ps=7.33 w=7 l=1
X246 gnd.t110 gnd.t107 gnd.t109 gnd.t108 sky130_fd_pr__nfet_01v8 ad=2.73 pd=14.78 as=0 ps=0 w=7 l=1
X247 vdd.t174 vdd.t172 vdd.t173 vdd.t148 sky130_fd_pr__pfet_01v8 ad=3.12 pd=16.78 as=0 ps=0 w=8 l=0.5