* NGSPICE file created from opamp649.ext - technology: sky130A

.subckt opamp649 gnd CSoutput output vdd plus minus commonsourceibias outputibias
+ diffpairibias
X0 gnd.t307 commonsourceibias.t64 CSoutput.t105 gnd.t186 sky130_fd_pr__nfet_01v8 ad=1.155 pd=7.33 as=1.155 ps=7.33 w=7 l=1
X1 CSoutput.t8 a_n7636_8799.t40 vdd.t256 vdd.t211 sky130_fd_pr__pfet_01v8 ad=1.32 pd=8.33 as=1.32 ps=8.33 w=8 l=0.5
X2 commonsourceibias.t37 commonsourceibias.t36 gnd.t306 gnd.t276 sky130_fd_pr__nfet_01v8 ad=1.155 pd=7.33 as=1.155 ps=7.33 w=7 l=1
X3 a_n2140_13878.t7 a_n2848_n452.t56 vdd.t1 vdd.t0 sky130_fd_pr__pfet_01v8 ad=1.485 pd=9.33 as=1.485 ps=9.33 w=9 l=0.5
X4 a_n2140_13878.t23 a_n2848_n452.t24 a_n2848_n452.t25 vdd.t127 sky130_fd_pr__pfet_01v8 ad=1.485 pd=9.33 as=1.485 ps=9.33 w=9 l=0.5
X5 CSoutput.t160 a_n2318_8322.t26 sky130_fd_pr__cap_mim_m3_1 l=12 w=12
X6 vdd.t255 a_n7636_8799.t41 CSoutput.t60 vdd.t206 sky130_fd_pr__pfet_01v8 ad=1.32 pd=8.33 as=1.32 ps=8.33 w=8 l=0.5
X7 a_n7636_8799.t31 plus.t5 a_n3106_n452.t33 gnd.t179 sky130_fd_pr__nfet_01v8 ad=1.155 pd=7.33 as=1.155 ps=7.33 w=7 l=0.9
X8 a_n3106_n452.t32 plus.t6 a_n7636_8799.t3 gnd.t16 sky130_fd_pr__nfet_01v8 ad=1.155 pd=7.33 as=1.155 ps=7.33 w=7 l=0.9
X9 gnd.t305 commonsourceibias.t65 CSoutput.t104 gnd.t271 sky130_fd_pr__nfet_01v8 ad=1.155 pd=7.33 as=1.155 ps=7.33 w=7 l=1
X10 CSoutput.t52 a_n7636_8799.t42 vdd.t254 vdd.t137 sky130_fd_pr__pfet_01v8 ad=1.32 pd=8.33 as=1.32 ps=8.33 w=8 l=0.5
X11 gnd.t128 gnd.t126 gnd.t127 gnd.t28 sky130_fd_pr__nfet_01v8 ad=2.73 pd=14.78 as=0 ps=0 w=7 l=1
X12 gnd.t304 commonsourceibias.t34 commonsourceibias.t35 gnd.t204 sky130_fd_pr__nfet_01v8 ad=1.155 pd=7.33 as=1.155 ps=7.33 w=7 l=1
X13 gnd.t303 commonsourceibias.t66 CSoutput.t103 gnd.t204 sky130_fd_pr__nfet_01v8 ad=1.155 pd=7.33 as=1.155 ps=7.33 w=7 l=1
X14 vdd.t83 vdd.t81 vdd.t82 vdd.t42 sky130_fd_pr__pfet_01v8 ad=3.12 pd=16.78 as=0 ps=0 w=8 l=0.5
X15 a_n2318_8322.t23 a_n2848_n452.t57 a_n7636_8799.t0 vdd.t2 sky130_fd_pr__pfet_01v8 ad=1.485 pd=9.33 as=1.485 ps=9.33 w=9 l=0.5
X16 output.t17 CSoutput.t161 vdd.t105 gnd.t157 sky130_fd_pr__nfet_01v8 ad=0.825 pd=5.33 as=0.825 ps=5.33 w=5 l=1
X17 CSoutput.t143 a_n7636_8799.t43 vdd.t253 vdd.t176 sky130_fd_pr__pfet_01v8 ad=1.32 pd=8.33 as=1.32 ps=8.33 w=8 l=0.5
X18 gnd.t302 commonsourceibias.t67 CSoutput.t102 gnd.t213 sky130_fd_pr__nfet_01v8 ad=1.155 pd=7.33 as=1.155 ps=7.33 w=7 l=1
X19 vdd.t252 a_n7636_8799.t44 CSoutput.t74 vdd.t202 sky130_fd_pr__pfet_01v8 ad=1.32 pd=8.33 as=1.32 ps=8.33 w=8 l=0.5
X20 a_n2848_n452.t43 minus.t5 a_n3106_n452.t35 gnd.t131 sky130_fd_pr__nfet_01v8 ad=1.155 pd=7.33 as=1.155 ps=7.33 w=7 l=0.9
X21 gnd.t301 commonsourceibias.t32 commonsourceibias.t33 gnd.t225 sky130_fd_pr__nfet_01v8 ad=1.155 pd=7.33 as=1.155 ps=7.33 w=7 l=1
X22 a_n7636_8799.t14 plus.t7 a_n3106_n452.t31 gnd.t170 sky130_fd_pr__nfet_01v8 ad=1.155 pd=7.33 as=1.155 ps=7.33 w=7 l=0.9
X23 a_n7636_8799.t12 a_n2848_n452.t58 a_n2318_8322.t22 vdd.t125 sky130_fd_pr__pfet_01v8 ad=1.485 pd=9.33 as=3.51 ps=18.78 w=9 l=0.5
X24 a_n2848_n452.t54 minus.t6 a_n3106_n452.t51 gnd.t173 sky130_fd_pr__nfet_01v8 ad=1.155 pd=7.33 as=1.155 ps=7.33 w=7 l=0.9
X25 plus.t4 gnd.t123 gnd.t125 gnd.t124 sky130_fd_pr__nfet_01v8 ad=0.165 pd=1.33 as=0.165 ps=1.33 w=1 l=0.5
X26 vdd.t251 a_n7636_8799.t45 CSoutput.t68 vdd.t224 sky130_fd_pr__pfet_01v8 ad=1.32 pd=8.33 as=1.32 ps=8.33 w=8 l=0.5
X27 CSoutput.t24 a_n7636_8799.t46 vdd.t250 vdd.t178 sky130_fd_pr__pfet_01v8 ad=1.32 pd=8.33 as=1.32 ps=8.33 w=8 l=0.5
X28 vdd.t249 a_n7636_8799.t47 CSoutput.t29 vdd.t221 sky130_fd_pr__pfet_01v8 ad=1.32 pd=8.33 as=1.32 ps=8.33 w=8 l=0.5
X29 output.t18 outputibias.t8 gnd.t163 gnd.t162 sky130_fd_pr__nfet_01v8 ad=2.34 pd=12.78 as=2.34 ps=12.78 w=6 l=2
X30 CSoutput.t162 a_n2318_8322.t27 sky130_fd_pr__cap_mim_m3_1 l=12 w=12
X31 a_n7636_8799.t13 a_n2848_n452.t59 a_n2318_8322.t21 vdd.t126 sky130_fd_pr__pfet_01v8 ad=1.485 pd=9.33 as=3.51 ps=18.78 w=9 l=0.5
X32 CSoutput.t130 commonsourceibias.t68 gnd.t300 gnd.t197 sky130_fd_pr__nfet_01v8 ad=1.155 pd=7.33 as=1.155 ps=7.33 w=7 l=1
X33 gnd.t122 gnd.t120 gnd.t121 gnd.t74 sky130_fd_pr__nfet_01v8 ad=2.73 pd=14.78 as=0 ps=0 w=7 l=1
X34 gnd.t299 commonsourceibias.t56 commonsourceibias.t57 gnd.t267 sky130_fd_pr__nfet_01v8 ad=1.155 pd=7.33 as=1.155 ps=7.33 w=7 l=1
X35 output.t19 outputibias.t9 gnd.t176 gnd.t175 sky130_fd_pr__nfet_01v8 ad=2.34 pd=12.78 as=2.34 ps=12.78 w=6 l=2
X36 vdd.t80 vdd.t78 vdd.t79 vdd.t9 sky130_fd_pr__pfet_01v8 ad=3.51 pd=18.78 as=0 ps=0 w=9 l=0.5
X37 CSoutput.t148 a_n7636_8799.t48 vdd.t248 vdd.t211 sky130_fd_pr__pfet_01v8 ad=1.32 pd=8.33 as=1.32 ps=8.33 w=8 l=0.5
X38 vdd.t107 CSoutput.t163 output.t16 gnd.t156 sky130_fd_pr__nfet_01v8 ad=0.825 pd=5.33 as=0.825 ps=5.33 w=5 l=1
X39 a_n3106_n452.t30 plus.t8 a_n7636_8799.t27 gnd.t174 sky130_fd_pr__nfet_01v8 ad=1.155 pd=7.33 as=1.155 ps=7.33 w=7 l=0.9
X40 CSoutput.t129 commonsourceibias.t69 gnd.t298 gnd.t192 sky130_fd_pr__nfet_01v8 ad=1.155 pd=7.33 as=1.155 ps=7.33 w=7 l=1
X41 a_n3106_n452.t45 diffpairibias.t16 gnd.t178 gnd.t177 sky130_fd_pr__nfet_01v8 ad=2.73 pd=14.78 as=2.73 ps=14.78 w=7 l=1
X42 CSoutput.t57 a_n7636_8799.t49 vdd.t247 vdd.t170 sky130_fd_pr__pfet_01v8 ad=1.32 pd=8.33 as=3.12 ps=16.78 w=8 l=0.5
X43 a_n3106_n452.t8 minus.t7 a_n2848_n452.t8 gnd.t11 sky130_fd_pr__nfet_01v8 ad=1.155 pd=7.33 as=1.155 ps=7.33 w=7 l=0.9
X44 output.t1 outputibias.t10 gnd.t15 gnd.t14 sky130_fd_pr__nfet_01v8 ad=2.34 pd=12.78 as=2.34 ps=12.78 w=6 l=2
X45 CSoutput.t128 commonsourceibias.t70 gnd.t297 gnd.t188 sky130_fd_pr__nfet_01v8 ad=1.155 pd=7.33 as=1.155 ps=7.33 w=7 l=1
X46 CSoutput.t18 a_n7636_8799.t50 vdd.t246 vdd.t137 sky130_fd_pr__pfet_01v8 ad=1.32 pd=8.33 as=1.32 ps=8.33 w=8 l=0.5
X47 output.t15 CSoutput.t164 vdd.t97 gnd.t155 sky130_fd_pr__nfet_01v8 ad=1.95 pd=10.78 as=0.825 ps=5.33 w=5 l=1
X48 gnd.t296 commonsourceibias.t54 commonsourceibias.t55 gnd.t233 sky130_fd_pr__nfet_01v8 ad=2.73 pd=14.78 as=1.155 ps=7.33 w=7 l=1
X49 vdd.t77 vdd.t75 vdd.t76 vdd.t42 sky130_fd_pr__pfet_01v8 ad=3.12 pd=16.78 as=0 ps=0 w=8 l=0.5
X50 a_n2140_13878.t22 a_n2848_n452.t32 a_n2848_n452.t33 vdd.t264 sky130_fd_pr__pfet_01v8 ad=1.485 pd=9.33 as=1.485 ps=9.33 w=9 l=0.5
X51 CSoutput.t127 commonsourceibias.t71 gnd.t295 gnd.t276 sky130_fd_pr__nfet_01v8 ad=1.155 pd=7.33 as=1.155 ps=7.33 w=7 l=1
X52 a_n2848_n452.t17 a_n2848_n452.t16 a_n2140_13878.t21 vdd.t4 sky130_fd_pr__pfet_01v8 ad=1.485 pd=9.33 as=1.485 ps=9.33 w=9 l=0.5
X53 gnd.t119 gnd.t117 gnd.t118 gnd.t60 sky130_fd_pr__nfet_01v8 ad=2.73 pd=14.78 as=0 ps=0 w=7 l=0.9
X54 CSoutput.t16 a_n7636_8799.t51 vdd.t245 vdd.t176 sky130_fd_pr__pfet_01v8 ad=1.32 pd=8.33 as=1.32 ps=8.33 w=8 l=0.5
X55 vdd.t74 vdd.t72 vdd.t73 vdd.t55 sky130_fd_pr__pfet_01v8 ad=3.51 pd=18.78 as=0 ps=0 w=9 l=0.5
X56 a_n3106_n452.t29 plus.t9 a_n7636_8799.t26 gnd.t133 sky130_fd_pr__nfet_01v8 ad=1.155 pd=7.33 as=1.155 ps=7.33 w=7 l=0.9
X57 vdd.t244 a_n7636_8799.t52 CSoutput.t51 vdd.t202 sky130_fd_pr__pfet_01v8 ad=1.32 pd=8.33 as=1.32 ps=8.33 w=8 l=0.5
X58 diffpairibias.t15 diffpairibias.t14 gnd.t130 gnd.t129 sky130_fd_pr__nfet_01v8 ad=2.73 pd=14.78 as=2.73 ps=14.78 w=7 l=1
X59 a_n3106_n452.t28 plus.t10 a_n7636_8799.t19 gnd.t3 sky130_fd_pr__nfet_01v8 ad=1.155 pd=7.33 as=1.155 ps=7.33 w=7 l=0.9
X60 a_n3106_n452.t40 minus.t8 a_n2848_n452.t46 gnd.t161 sky130_fd_pr__nfet_01v8 ad=2.73 pd=14.78 as=1.155 ps=7.33 w=7 l=0.9
X61 a_n7636_8799.t34 a_n2848_n452.t60 a_n2318_8322.t20 vdd.t257 sky130_fd_pr__pfet_01v8 ad=1.485 pd=9.33 as=1.485 ps=9.33 w=9 l=0.5
X62 CSoutput.t35 a_n7636_8799.t53 vdd.t243 vdd.t208 sky130_fd_pr__pfet_01v8 ad=1.32 pd=8.33 as=1.32 ps=8.33 w=8 l=0.5
X63 vdd.t242 a_n7636_8799.t54 CSoutput.t10 vdd.t145 sky130_fd_pr__pfet_01v8 ad=1.32 pd=8.33 as=1.32 ps=8.33 w=8 l=0.5
X64 vdd.t241 a_n7636_8799.t55 CSoutput.t23 vdd.t221 sky130_fd_pr__pfet_01v8 ad=1.32 pd=8.33 as=1.32 ps=8.33 w=8 l=0.5
X65 gnd.t294 commonsourceibias.t72 CSoutput.t126 gnd.t271 sky130_fd_pr__nfet_01v8 ad=1.155 pd=7.33 as=1.155 ps=7.33 w=7 l=1
X66 diffpairibias.t13 diffpairibias.t12 gnd.t311 gnd.t310 sky130_fd_pr__nfet_01v8 ad=2.73 pd=14.78 as=2.73 ps=14.78 w=7 l=1
X67 gnd.t293 commonsourceibias.t73 CSoutput.t125 gnd.t180 sky130_fd_pr__nfet_01v8 ad=1.155 pd=7.33 as=1.155 ps=7.33 w=7 l=1
X68 CSoutput.t61 a_n7636_8799.t56 vdd.t240 vdd.t152 sky130_fd_pr__pfet_01v8 ad=1.32 pd=8.33 as=1.32 ps=8.33 w=8 l=0.5
X69 output.t14 CSoutput.t165 vdd.t103 gnd.t154 sky130_fd_pr__nfet_01v8 ad=0.825 pd=5.33 as=0.825 ps=5.33 w=5 l=1
X70 commonsourceibias.t53 commonsourceibias.t52 gnd.t292 gnd.t197 sky130_fd_pr__nfet_01v8 ad=1.155 pd=7.33 as=1.155 ps=7.33 w=7 l=1
X71 vdd.t104 CSoutput.t166 output.t13 gnd.t153 sky130_fd_pr__nfet_01v8 ad=0.825 pd=5.33 as=1.95 ps=10.78 w=5 l=1
X72 gnd.t291 commonsourceibias.t74 CSoutput.t124 gnd.t267 sky130_fd_pr__nfet_01v8 ad=1.155 pd=7.33 as=1.155 ps=7.33 w=7 l=1
X73 vdd.t239 a_n7636_8799.t57 CSoutput.t39 vdd.t133 sky130_fd_pr__pfet_01v8 ad=1.32 pd=8.33 as=1.32 ps=8.33 w=8 l=0.5
X74 CSoutput.t54 a_n7636_8799.t58 vdd.t238 vdd.t227 sky130_fd_pr__pfet_01v8 ad=1.32 pd=8.33 as=1.32 ps=8.33 w=8 l=0.5
X75 CSoutput.t25 a_n7636_8799.t59 vdd.t237 vdd.t170 sky130_fd_pr__pfet_01v8 ad=1.32 pd=8.33 as=3.12 ps=16.78 w=8 l=0.5
X76 CSoutput.t66 a_n7636_8799.t60 vdd.t236 vdd.t187 sky130_fd_pr__pfet_01v8 ad=1.32 pd=8.33 as=3.12 ps=16.78 w=8 l=0.5
X77 commonsourceibias.t51 commonsourceibias.t50 gnd.t290 gnd.t227 sky130_fd_pr__nfet_01v8 ad=1.155 pd=7.33 as=1.155 ps=7.33 w=7 l=1
X78 gnd.t289 commonsourceibias.t75 CSoutput.t123 gnd.t213 sky130_fd_pr__nfet_01v8 ad=1.155 pd=7.33 as=1.155 ps=7.33 w=7 l=1
X79 CSoutput.t157 a_n7636_8799.t61 vdd.t235 vdd.t227 sky130_fd_pr__pfet_01v8 ad=1.32 pd=8.33 as=1.32 ps=8.33 w=8 l=0.5
X80 CSoutput.t167 a_n2318_8322.t24 sky130_fd_pr__cap_mim_m3_1 l=12 w=12
X81 a_n3106_n452.t4 minus.t9 a_n2848_n452.t4 gnd.t4 sky130_fd_pr__nfet_01v8 ad=1.155 pd=7.33 as=1.155 ps=7.33 w=7 l=0.9
X82 a_n3106_n452.t27 plus.t11 a_n7636_8799.t18 gnd.t169 sky130_fd_pr__nfet_01v8 ad=2.73 pd=14.78 as=1.155 ps=7.33 w=7 l=0.9
X83 commonsourceibias.t49 commonsourceibias.t48 gnd.t288 gnd.t215 sky130_fd_pr__nfet_01v8 ad=1.155 pd=7.33 as=1.155 ps=7.33 w=7 l=1
X84 a_n7636_8799.t17 plus.t12 a_n3106_n452.t26 gnd.t1 sky130_fd_pr__nfet_01v8 ad=1.155 pd=7.33 as=1.155 ps=7.33 w=7 l=0.9
X85 gnd.t287 commonsourceibias.t76 CSoutput.t113 gnd.t264 sky130_fd_pr__nfet_01v8 ad=1.155 pd=7.33 as=1.155 ps=7.33 w=7 l=1
X86 CSoutput.t112 commonsourceibias.t77 gnd.t286 gnd.t253 sky130_fd_pr__nfet_01v8 ad=1.155 pd=7.33 as=2.73 ps=14.78 w=7 l=1
X87 gnd.t285 commonsourceibias.t44 commonsourceibias.t45 gnd.t264 sky130_fd_pr__nfet_01v8 ad=1.155 pd=7.33 as=1.155 ps=7.33 w=7 l=1
X88 a_n3106_n452.t41 diffpairibias.t17 gnd.t165 gnd.t164 sky130_fd_pr__nfet_01v8 ad=2.73 pd=14.78 as=2.73 ps=14.78 w=7 l=1
X89 vdd.t234 a_n7636_8799.t62 CSoutput.t67 vdd.t199 sky130_fd_pr__pfet_01v8 ad=1.32 pd=8.33 as=1.32 ps=8.33 w=8 l=0.5
X90 a_n2848_n452.t41 a_n2848_n452.t40 a_n2140_13878.t20 vdd.t2 sky130_fd_pr__pfet_01v8 ad=1.485 pd=9.33 as=1.485 ps=9.33 w=9 l=0.5
X91 vdd.t233 a_n7636_8799.t63 CSoutput.t155 vdd.t180 sky130_fd_pr__pfet_01v8 ad=1.32 pd=8.33 as=1.32 ps=8.33 w=8 l=0.5
X92 a_n3106_n452.t25 plus.t13 a_n7636_8799.t16 gnd.t172 sky130_fd_pr__nfet_01v8 ad=1.155 pd=7.33 as=1.155 ps=7.33 w=7 l=0.9
X93 a_n7636_8799.t35 a_n2848_n452.t61 a_n2318_8322.t19 vdd.t93 sky130_fd_pr__pfet_01v8 ad=1.485 pd=9.33 as=1.485 ps=9.33 w=9 l=0.5
X94 vdd.t232 a_n7636_8799.t64 CSoutput.t15 vdd.t224 sky130_fd_pr__pfet_01v8 ad=1.32 pd=8.33 as=1.32 ps=8.33 w=8 l=0.5
X95 a_n2848_n452.t15 a_n2848_n452.t14 a_n2140_13878.t19 vdd.t3 sky130_fd_pr__pfet_01v8 ad=3.51 pd=18.78 as=1.485 ps=9.33 w=9 l=0.5
X96 gnd.t284 commonsourceibias.t42 commonsourceibias.t43 gnd.t256 sky130_fd_pr__nfet_01v8 ad=2.73 pd=14.78 as=1.155 ps=7.33 w=7 l=1
X97 gnd.t116 gnd.t114 gnd.t115 gnd.t74 sky130_fd_pr__nfet_01v8 ad=2.73 pd=14.78 as=0 ps=0 w=7 l=1
X98 commonsourceibias.t41 commonsourceibias.t40 gnd.t283 gnd.t188 sky130_fd_pr__nfet_01v8 ad=1.155 pd=7.33 as=1.155 ps=7.33 w=7 l=1
X99 CSoutput.t111 commonsourceibias.t78 gnd.t282 gnd.t192 sky130_fd_pr__nfet_01v8 ad=1.155 pd=7.33 as=1.155 ps=7.33 w=7 l=1
X100 vdd.t231 a_n7636_8799.t65 CSoutput.t40 vdd.t149 sky130_fd_pr__pfet_01v8 ad=1.32 pd=8.33 as=1.32 ps=8.33 w=8 l=0.5
X101 CSoutput.t44 a_n7636_8799.t66 vdd.t230 vdd.t184 sky130_fd_pr__pfet_01v8 ad=1.32 pd=8.33 as=1.32 ps=8.33 w=8 l=0.5
X102 CSoutput.t110 commonsourceibias.t79 gnd.t281 gnd.t251 sky130_fd_pr__nfet_01v8 ad=1.155 pd=7.33 as=1.155 ps=7.33 w=7 l=1
X103 a_n2848_n452.t44 minus.t10 a_n3106_n452.t36 gnd.t132 sky130_fd_pr__nfet_01v8 ad=1.155 pd=7.33 as=2.73 ps=14.78 w=7 l=0.9
X104 vdd.t100 CSoutput.t168 output.t12 gnd.t152 sky130_fd_pr__nfet_01v8 ad=0.825 pd=5.33 as=0.825 ps=5.33 w=5 l=1
X105 vdd.t71 vdd.t69 vdd.t70 vdd.t59 sky130_fd_pr__pfet_01v8 ad=3.51 pd=18.78 as=0 ps=0 w=9 l=0.5
X106 vdd.t68 vdd.t66 vdd.t67 vdd.t21 sky130_fd_pr__pfet_01v8 ad=3.12 pd=16.78 as=0 ps=0 w=8 l=0.5
X107 CSoutput.t109 commonsourceibias.t80 gnd.t280 gnd.t258 sky130_fd_pr__nfet_01v8 ad=1.155 pd=7.33 as=1.155 ps=7.33 w=7 l=1
X108 CSoutput.t62 a_n7636_8799.t67 vdd.t229 vdd.t152 sky130_fd_pr__pfet_01v8 ad=1.32 pd=8.33 as=1.32 ps=8.33 w=8 l=0.5
X109 vdd.t65 vdd.t62 vdd.t64 vdd.t63 sky130_fd_pr__pfet_01v8 ad=3.51 pd=18.78 as=0 ps=0 w=9 l=0.5
X110 gnd.t279 commonsourceibias.t81 CSoutput.t108 gnd.t256 sky130_fd_pr__nfet_01v8 ad=2.73 pd=14.78 as=1.155 ps=7.33 w=7 l=1
X111 commonsourceibias.t39 commonsourceibias.t38 gnd.t278 gnd.t211 sky130_fd_pr__nfet_01v8 ad=1.155 pd=7.33 as=1.155 ps=7.33 w=7 l=1
X112 CSoutput.t107 commonsourceibias.t82 gnd.t277 gnd.t276 sky130_fd_pr__nfet_01v8 ad=1.155 pd=7.33 as=1.155 ps=7.33 w=7 l=1
X113 CSoutput.t169 a_n2318_8322.t26 sky130_fd_pr__cap_mim_m3_1 l=12 w=12
X114 vdd.t85 a_n2848_n452.t62 a_n2318_8322.t7 vdd.t84 sky130_fd_pr__pfet_01v8 ad=1.485 pd=9.33 as=1.485 ps=9.33 w=9 l=0.5
X115 a_n2848_n452.t37 a_n2848_n452.t36 a_n2140_13878.t18 vdd.t90 sky130_fd_pr__pfet_01v8 ad=3.51 pd=18.78 as=1.485 ps=9.33 w=9 l=0.5
X116 a_n2318_8322.t6 a_n2848_n452.t63 vdd.t87 vdd.t86 sky130_fd_pr__pfet_01v8 ad=1.485 pd=9.33 as=1.485 ps=9.33 w=9 l=0.5
X117 a_n3106_n452.t55 diffpairibias.t18 gnd.t321 gnd.t320 sky130_fd_pr__nfet_01v8 ad=2.73 pd=14.78 as=2.73 ps=14.78 w=7 l=1
X118 CSoutput.t38 a_n7636_8799.t68 vdd.t228 vdd.t227 sky130_fd_pr__pfet_01v8 ad=1.32 pd=8.33 as=1.32 ps=8.33 w=8 l=0.5
X119 CSoutput.t20 a_n7636_8799.t69 vdd.t226 vdd.t187 sky130_fd_pr__pfet_01v8 ad=1.32 pd=8.33 as=3.12 ps=16.78 w=8 l=0.5
X120 output.t0 outputibias.t11 gnd.t13 gnd.t12 sky130_fd_pr__nfet_01v8 ad=2.34 pd=12.78 as=2.34 ps=12.78 w=6 l=2
X121 gnd.t275 commonsourceibias.t83 CSoutput.t106 gnd.t231 sky130_fd_pr__nfet_01v8 ad=1.155 pd=7.33 as=1.155 ps=7.33 w=7 l=1
X122 gnd.t113 gnd.t111 gnd.t112 gnd.t56 sky130_fd_pr__nfet_01v8 ad=2.73 pd=14.78 as=0 ps=0 w=7 l=0.9
X123 gnd.t110 gnd.t108 minus.t4 gnd.t109 sky130_fd_pr__nfet_01v8 ad=0.39 pd=2.78 as=0.165 ps=1.33 w=1 l=0.5
X124 CSoutput.t170 a_n2318_8322.t25 sky130_fd_pr__cap_mim_m3_1 l=12 w=12
X125 commonsourceibias.t31 commonsourceibias.t30 gnd.t274 gnd.t258 sky130_fd_pr__nfet_01v8 ad=1.155 pd=7.33 as=1.155 ps=7.33 w=7 l=1
X126 vdd.t119 a_n2848_n452.t64 a_n2140_13878.t6 vdd.t118 sky130_fd_pr__pfet_01v8 ad=1.485 pd=9.33 as=1.485 ps=9.33 w=9 l=0.5
X127 vdd.t61 vdd.t58 vdd.t60 vdd.t59 sky130_fd_pr__pfet_01v8 ad=3.51 pd=18.78 as=0 ps=0 w=9 l=0.5
X128 gnd.t273 commonsourceibias.t84 CSoutput.t101 gnd.t180 sky130_fd_pr__nfet_01v8 ad=1.155 pd=7.33 as=1.155 ps=7.33 w=7 l=1
X129 vdd.t225 a_n7636_8799.t70 CSoutput.t21 vdd.t224 sky130_fd_pr__pfet_01v8 ad=1.32 pd=8.33 as=1.32 ps=8.33 w=8 l=0.5
X130 gnd.t272 commonsourceibias.t28 commonsourceibias.t29 gnd.t271 sky130_fd_pr__nfet_01v8 ad=1.155 pd=7.33 as=1.155 ps=7.33 w=7 l=1
X131 gnd.t107 gnd.t105 plus.t3 gnd.t106 sky130_fd_pr__nfet_01v8 ad=0.39 pd=2.78 as=0.165 ps=1.33 w=1 l=0.5
X132 a_n7636_8799.t15 plus.t14 a_n3106_n452.t24 gnd.t171 sky130_fd_pr__nfet_01v8 ad=1.155 pd=7.33 as=2.73 ps=14.78 w=7 l=0.9
X133 a_n2848_n452.t7 minus.t11 a_n3106_n452.t7 gnd.t10 sky130_fd_pr__nfet_01v8 ad=1.155 pd=7.33 as=1.155 ps=7.33 w=7 l=0.9
X134 vdd.t57 vdd.t54 vdd.t56 vdd.t55 sky130_fd_pr__pfet_01v8 ad=3.51 pd=18.78 as=0 ps=0 w=9 l=0.5
X135 a_n2318_8322.t5 a_n2848_n452.t65 vdd.t121 vdd.t120 sky130_fd_pr__pfet_01v8 ad=3.51 pd=18.78 as=1.485 ps=9.33 w=9 l=0.5
X136 commonsourceibias.t27 commonsourceibias.t26 gnd.t270 gnd.t219 sky130_fd_pr__nfet_01v8 ad=1.155 pd=7.33 as=1.155 ps=7.33 w=7 l=1
X137 gnd.t269 commonsourceibias.t85 CSoutput.t100 gnd.t222 sky130_fd_pr__nfet_01v8 ad=1.155 pd=7.33 as=1.155 ps=7.33 w=7 l=1
X138 gnd.t268 commonsourceibias.t86 CSoutput.t99 gnd.t267 sky130_fd_pr__nfet_01v8 ad=1.155 pd=7.33 as=1.155 ps=7.33 w=7 l=1
X139 a_n7636_8799.t29 a_n2848_n452.t66 a_n2318_8322.t18 vdd.t128 sky130_fd_pr__pfet_01v8 ad=1.485 pd=9.33 as=1.485 ps=9.33 w=9 l=0.5
X140 a_n7636_8799.t20 plus.t15 a_n3106_n452.t23 gnd.t0 sky130_fd_pr__nfet_01v8 ad=1.155 pd=7.33 as=1.155 ps=7.33 w=7 l=0.9
X141 CSoutput.t63 a_n7636_8799.t71 vdd.t223 vdd.t161 sky130_fd_pr__pfet_01v8 ad=1.32 pd=8.33 as=1.32 ps=8.33 w=8 l=0.5
X142 diffpairibias.t11 diffpairibias.t10 gnd.t137 gnd.t136 sky130_fd_pr__nfet_01v8 ad=2.73 pd=14.78 as=2.73 ps=14.78 w=7 l=1
X143 a_n2848_n452.t2 minus.t12 a_n3106_n452.t2 gnd.t2 sky130_fd_pr__nfet_01v8 ad=1.155 pd=7.33 as=1.155 ps=7.33 w=7 l=0.9
X144 vdd.t222 a_n7636_8799.t72 CSoutput.t30 vdd.t221 sky130_fd_pr__pfet_01v8 ad=1.32 pd=8.33 as=1.32 ps=8.33 w=8 l=0.5
X145 a_n2848_n452.t21 a_n2848_n452.t20 a_n2140_13878.t17 vdd.t124 sky130_fd_pr__pfet_01v8 ad=1.485 pd=9.33 as=1.485 ps=9.33 w=9 l=0.5
X146 vdd.t220 a_n7636_8799.t73 CSoutput.t156 vdd.t149 sky130_fd_pr__pfet_01v8 ad=1.32 pd=8.33 as=1.32 ps=8.33 w=8 l=0.5
X147 a_n7636_8799.t30 a_n2848_n452.t67 a_n2318_8322.t17 vdd.t127 sky130_fd_pr__pfet_01v8 ad=1.485 pd=9.33 as=1.485 ps=9.33 w=9 l=0.5
X148 CSoutput.t71 a_n7636_8799.t74 vdd.t219 vdd.t184 sky130_fd_pr__pfet_01v8 ad=1.32 pd=8.33 as=1.32 ps=8.33 w=8 l=0.5
X149 gnd.t104 gnd.t101 gnd.t103 gnd.t102 sky130_fd_pr__nfet_01v8 ad=2.34 pd=12.78 as=0 ps=0 w=6 l=2
X150 gnd.t266 commonsourceibias.t87 CSoutput.t98 gnd.t240 sky130_fd_pr__nfet_01v8 ad=1.155 pd=7.33 as=1.155 ps=7.33 w=7 l=1
X151 a_n2140_13878.t16 a_n2848_n452.t38 a_n2848_n452.t39 vdd.t93 sky130_fd_pr__pfet_01v8 ad=1.485 pd=9.33 as=1.485 ps=9.33 w=9 l=0.5
X152 vdd.t53 vdd.t51 vdd.t52 vdd.t21 sky130_fd_pr__pfet_01v8 ad=3.12 pd=16.78 as=0 ps=0 w=8 l=0.5
X153 gnd.t265 commonsourceibias.t88 CSoutput.t97 gnd.t264 sky130_fd_pr__nfet_01v8 ad=1.155 pd=7.33 as=1.155 ps=7.33 w=7 l=1
X154 CSoutput.t118 commonsourceibias.t89 gnd.t254 gnd.t253 sky130_fd_pr__nfet_01v8 ad=1.155 pd=7.33 as=2.73 ps=14.78 w=7 l=1
X155 commonsourceibias.t25 commonsourceibias.t24 gnd.t263 gnd.t253 sky130_fd_pr__nfet_01v8 ad=1.155 pd=7.33 as=2.73 ps=14.78 w=7 l=1
X156 a_n3106_n452.t9 minus.t13 a_n2848_n452.t9 gnd.t8 sky130_fd_pr__nfet_01v8 ad=1.155 pd=7.33 as=1.155 ps=7.33 w=7 l=0.9
X157 CSoutput.t26 a_n7636_8799.t75 vdd.t218 vdd.t208 sky130_fd_pr__pfet_01v8 ad=1.32 pd=8.33 as=1.32 ps=8.33 w=8 l=0.5
X158 vdd.t261 a_n2848_n452.t68 a_n2318_8322.t4 vdd.t260 sky130_fd_pr__pfet_01v8 ad=1.485 pd=9.33 as=3.51 ps=18.78 w=9 l=0.5
X159 CSoutput.t96 commonsourceibias.t90 gnd.t262 gnd.t201 sky130_fd_pr__nfet_01v8 ad=1.155 pd=7.33 as=1.155 ps=7.33 w=7 l=1
X160 a_n2140_13878.t15 a_n2848_n452.t10 a_n2848_n452.t11 vdd.t125 sky130_fd_pr__pfet_01v8 ad=1.485 pd=9.33 as=3.51 ps=18.78 w=9 l=0.5
X161 vdd.t217 a_n7636_8799.t76 CSoutput.t45 vdd.t206 sky130_fd_pr__pfet_01v8 ad=1.32 pd=8.33 as=1.32 ps=8.33 w=8 l=0.5
X162 a_n2848_n452.t53 minus.t14 a_n3106_n452.t49 gnd.t179 sky130_fd_pr__nfet_01v8 ad=1.155 pd=7.33 as=1.155 ps=7.33 w=7 l=0.9
X163 a_n3106_n452.t22 plus.t16 a_n7636_8799.t10 gnd.t160 sky130_fd_pr__nfet_01v8 ad=1.155 pd=7.33 as=1.155 ps=7.33 w=7 l=0.9
X164 a_n2848_n452.t13 a_n2848_n452.t12 a_n2140_13878.t14 vdd.t7 sky130_fd_pr__pfet_01v8 ad=1.485 pd=9.33 as=1.485 ps=9.33 w=9 l=0.5
X165 vdd.t216 a_n7636_8799.t77 CSoutput.t17 vdd.t163 sky130_fd_pr__pfet_01v8 ad=1.32 pd=8.33 as=1.32 ps=8.33 w=8 l=0.5
X166 CSoutput.t95 commonsourceibias.t91 gnd.t261 gnd.t251 sky130_fd_pr__nfet_01v8 ad=1.155 pd=7.33 as=1.155 ps=7.33 w=7 l=1
X167 a_n3106_n452.t50 diffpairibias.t19 gnd.t313 gnd.t312 sky130_fd_pr__nfet_01v8 ad=2.73 pd=14.78 as=2.73 ps=14.78 w=7 l=1
X168 gnd.t100 gnd.t97 gnd.t99 gnd.t98 sky130_fd_pr__nfet_01v8 ad=2.73 pd=14.78 as=0 ps=0 w=7 l=1
X169 a_n3106_n452.t52 diffpairibias.t20 gnd.t315 gnd.t314 sky130_fd_pr__nfet_01v8 ad=2.73 pd=14.78 as=2.73 ps=14.78 w=7 l=1
X170 vdd.t99 CSoutput.t171 output.t11 gnd.t151 sky130_fd_pr__nfet_01v8 ad=0.825 pd=5.33 as=0.825 ps=5.33 w=5 l=1
X171 a_n7636_8799.t28 plus.t17 a_n3106_n452.t21 gnd.t168 sky130_fd_pr__nfet_01v8 ad=1.155 pd=7.33 as=1.155 ps=7.33 w=7 l=0.9
X172 CSoutput.t122 commonsourceibias.t92 gnd.t260 gnd.t184 sky130_fd_pr__nfet_01v8 ad=1.155 pd=7.33 as=1.155 ps=7.33 w=7 l=1
X173 CSoutput.t121 commonsourceibias.t93 gnd.t259 gnd.t258 sky130_fd_pr__nfet_01v8 ad=1.155 pd=7.33 as=1.155 ps=7.33 w=7 l=1
X174 vdd.t215 a_n7636_8799.t78 CSoutput.t145 vdd.t199 sky130_fd_pr__pfet_01v8 ad=1.32 pd=8.33 as=1.32 ps=8.33 w=8 l=0.5
X175 vdd.t214 a_n7636_8799.t79 CSoutput.t27 vdd.t168 sky130_fd_pr__pfet_01v8 ad=3.12 pd=16.78 as=1.32 ps=8.33 w=8 l=0.5
X176 gnd.t257 commonsourceibias.t94 CSoutput.t120 gnd.t256 sky130_fd_pr__nfet_01v8 ad=2.73 pd=14.78 as=1.155 ps=7.33 w=7 l=1
X177 gnd.t255 commonsourceibias.t95 CSoutput.t119 gnd.t233 sky130_fd_pr__nfet_01v8 ad=2.73 pd=14.78 as=1.155 ps=7.33 w=7 l=1
X178 commonsourceibias.t47 commonsourceibias.t46 gnd.t252 gnd.t251 sky130_fd_pr__nfet_01v8 ad=1.155 pd=7.33 as=1.155 ps=7.33 w=7 l=1
X179 CSoutput.t117 commonsourceibias.t96 gnd.t250 gnd.t209 sky130_fd_pr__nfet_01v8 ad=1.155 pd=7.33 as=1.155 ps=7.33 w=7 l=1
X180 a_n7636_8799.t25 plus.t18 a_n3106_n452.t20 gnd.t173 sky130_fd_pr__nfet_01v8 ad=1.155 pd=7.33 as=1.155 ps=7.33 w=7 l=0.9
X181 CSoutput.t46 a_n7636_8799.t80 vdd.t213 vdd.t131 sky130_fd_pr__pfet_01v8 ad=1.32 pd=8.33 as=1.32 ps=8.33 w=8 l=0.5
X182 gnd.t249 commonsourceibias.t97 CSoutput.t116 gnd.t231 sky130_fd_pr__nfet_01v8 ad=1.155 pd=7.33 as=1.155 ps=7.33 w=7 l=1
X183 CSoutput.t34 a_n7636_8799.t81 vdd.t212 vdd.t211 sky130_fd_pr__pfet_01v8 ad=1.32 pd=8.33 as=1.32 ps=8.33 w=8 l=0.5
X184 minus.t3 gnd.t94 gnd.t96 gnd.t95 sky130_fd_pr__nfet_01v8 ad=0.165 pd=1.33 as=0.165 ps=1.33 w=1 l=0.5
X185 CSoutput.t47 a_n7636_8799.t82 vdd.t210 vdd.t194 sky130_fd_pr__pfet_01v8 ad=1.32 pd=8.33 as=1.32 ps=8.33 w=8 l=0.5
X186 gnd.t93 gnd.t91 gnd.t92 gnd.t32 sky130_fd_pr__nfet_01v8 ad=2.73 pd=14.78 as=0 ps=0 w=7 l=1
X187 CSoutput.t115 commonsourceibias.t98 gnd.t248 gnd.t227 sky130_fd_pr__nfet_01v8 ad=1.155 pd=7.33 as=1.155 ps=7.33 w=7 l=1
X188 diffpairibias.t9 diffpairibias.t8 gnd.t317 gnd.t316 sky130_fd_pr__nfet_01v8 ad=2.73 pd=14.78 as=2.73 ps=14.78 w=7 l=1
X189 a_n2140_13878.t5 a_n2848_n452.t69 vdd.t263 vdd.t262 sky130_fd_pr__pfet_01v8 ad=1.485 pd=9.33 as=1.485 ps=9.33 w=9 l=0.5
X190 a_n2848_n452.t5 minus.t15 a_n3106_n452.t5 gnd.t5 sky130_fd_pr__nfet_01v8 ad=1.155 pd=7.33 as=1.155 ps=7.33 w=7 l=0.9
X191 vdd.t266 a_n2848_n452.t70 a_n2140_13878.t4 vdd.t265 sky130_fd_pr__pfet_01v8 ad=1.485 pd=9.33 as=1.485 ps=9.33 w=9 l=0.5
X192 vdd.t50 vdd.t48 vdd.t49 vdd.t38 sky130_fd_pr__pfet_01v8 ad=3.12 pd=16.78 as=0 ps=0 w=8 l=0.5
X193 CSoutput.t41 a_n7636_8799.t83 vdd.t209 vdd.t208 sky130_fd_pr__pfet_01v8 ad=1.32 pd=8.33 as=1.32 ps=8.33 w=8 l=0.5
X194 a_n3106_n452.t19 plus.t19 a_n7636_8799.t24 gnd.t11 sky130_fd_pr__nfet_01v8 ad=1.155 pd=7.33 as=1.155 ps=7.33 w=7 l=0.9
X195 vdd.t207 a_n7636_8799.t84 CSoutput.t70 vdd.t206 sky130_fd_pr__pfet_01v8 ad=1.32 pd=8.33 as=1.32 ps=8.33 w=8 l=0.5
X196 vdd.t47 vdd.t45 vdd.t46 vdd.t38 sky130_fd_pr__pfet_01v8 ad=3.12 pd=16.78 as=0 ps=0 w=8 l=0.5
X197 gnd.t247 commonsourceibias.t99 CSoutput.t114 gnd.t225 sky130_fd_pr__nfet_01v8 ad=1.155 pd=7.33 as=1.155 ps=7.33 w=7 l=1
X198 CSoutput.t139 commonsourceibias.t100 gnd.t246 gnd.t182 sky130_fd_pr__nfet_01v8 ad=1.155 pd=7.33 as=2.73 ps=14.78 w=7 l=1
X199 a_n2140_13878.t13 a_n2848_n452.t26 a_n2848_n452.t27 vdd.t257 sky130_fd_pr__pfet_01v8 ad=1.485 pd=9.33 as=1.485 ps=9.33 w=9 l=0.5
X200 gnd.t245 commonsourceibias.t62 commonsourceibias.t63 gnd.t199 sky130_fd_pr__nfet_01v8 ad=1.155 pd=7.33 as=1.155 ps=7.33 w=7 l=1
X201 gnd.t244 commonsourceibias.t101 CSoutput.t138 gnd.t222 sky130_fd_pr__nfet_01v8 ad=1.155 pd=7.33 as=1.155 ps=7.33 w=7 l=1
X202 vdd.t205 a_n7636_8799.t85 CSoutput.t159 vdd.t163 sky130_fd_pr__pfet_01v8 ad=1.32 pd=8.33 as=1.32 ps=8.33 w=8 l=0.5
X203 a_n3106_n452.t6 minus.t16 a_n2848_n452.t6 gnd.t9 sky130_fd_pr__nfet_01v8 ad=1.155 pd=7.33 as=1.155 ps=7.33 w=7 l=0.9
X204 gnd.t243 commonsourceibias.t102 CSoutput.t137 gnd.t240 sky130_fd_pr__nfet_01v8 ad=1.155 pd=7.33 as=1.155 ps=7.33 w=7 l=1
X205 a_n2318_8322.t16 a_n2848_n452.t71 a_n7636_8799.t39 vdd.t267 sky130_fd_pr__pfet_01v8 ad=1.485 pd=9.33 as=1.485 ps=9.33 w=9 l=0.5
X206 vdd.t98 CSoutput.t172 output.t10 gnd.t150 sky130_fd_pr__nfet_01v8 ad=0.825 pd=5.33 as=0.825 ps=5.33 w=5 l=1
X207 CSoutput.t28 a_n7636_8799.t86 vdd.t204 vdd.t165 sky130_fd_pr__pfet_01v8 ad=1.32 pd=8.33 as=1.32 ps=8.33 w=8 l=0.5
X208 diffpairibias.t7 diffpairibias.t6 gnd.t20 gnd.t19 sky130_fd_pr__nfet_01v8 ad=2.73 pd=14.78 as=2.73 ps=14.78 w=7 l=1
X209 CSoutput.t136 commonsourceibias.t103 gnd.t242 gnd.t219 sky130_fd_pr__nfet_01v8 ad=1.155 pd=7.33 as=1.155 ps=7.33 w=7 l=1
X210 vdd.t203 a_n7636_8799.t87 CSoutput.t149 vdd.t202 sky130_fd_pr__pfet_01v8 ad=1.32 pd=8.33 as=1.32 ps=8.33 w=8 l=0.5
X211 vdd.t114 a_n2848_n452.t72 a_n2318_8322.t3 vdd.t113 sky130_fd_pr__pfet_01v8 ad=1.485 pd=9.33 as=3.51 ps=18.78 w=9 l=0.5
X212 gnd.t241 commonsourceibias.t60 commonsourceibias.t61 gnd.t240 sky130_fd_pr__nfet_01v8 ad=1.155 pd=7.33 as=1.155 ps=7.33 w=7 l=1
X213 gnd.t90 gnd.t87 gnd.t89 gnd.t88 sky130_fd_pr__nfet_01v8 ad=1.95 pd=10.78 as=0 ps=0 w=5 l=1
X214 vdd.t201 a_n7636_8799.t88 CSoutput.t32 vdd.t168 sky130_fd_pr__pfet_01v8 ad=3.12 pd=16.78 as=1.32 ps=8.33 w=8 l=0.5
X215 vdd.t200 a_n7636_8799.t89 CSoutput.t150 vdd.t199 sky130_fd_pr__pfet_01v8 ad=1.32 pd=8.33 as=1.32 ps=8.33 w=8 l=0.5
X216 gnd.t86 gnd.t84 gnd.t85 gnd.t32 sky130_fd_pr__nfet_01v8 ad=2.73 pd=14.78 as=0 ps=0 w=7 l=1
X217 a_n3106_n452.t3 minus.t17 a_n2848_n452.t3 gnd.t3 sky130_fd_pr__nfet_01v8 ad=1.155 pd=7.33 as=1.155 ps=7.33 w=7 l=0.9
X218 CSoutput.t135 commonsourceibias.t104 gnd.t239 gnd.t215 sky130_fd_pr__nfet_01v8 ad=1.155 pd=7.33 as=1.155 ps=7.33 w=7 l=1
X219 a_n3106_n452.t18 plus.t20 a_n7636_8799.t23 gnd.t161 sky130_fd_pr__nfet_01v8 ad=2.73 pd=14.78 as=1.155 ps=7.33 w=7 l=0.9
X220 a_n3106_n452.t34 minus.t18 a_n2848_n452.t42 gnd.t16 sky130_fd_pr__nfet_01v8 ad=1.155 pd=7.33 as=1.155 ps=7.33 w=7 l=0.9
X221 CSoutput.t134 commonsourceibias.t105 gnd.t238 gnd.t201 sky130_fd_pr__nfet_01v8 ad=1.155 pd=7.33 as=1.155 ps=7.33 w=7 l=1
X222 a_n2140_13878.t3 a_n2848_n452.t73 vdd.t116 vdd.t115 sky130_fd_pr__pfet_01v8 ad=3.51 pd=18.78 as=1.485 ps=9.33 w=9 l=0.5
X223 vdd.t198 a_n7636_8799.t90 CSoutput.t1 vdd.t180 sky130_fd_pr__pfet_01v8 ad=1.32 pd=8.33 as=1.32 ps=8.33 w=8 l=0.5
X224 CSoutput.t2 a_n7636_8799.t91 vdd.t197 vdd.t194 sky130_fd_pr__pfet_01v8 ad=1.32 pd=8.33 as=1.32 ps=8.33 w=8 l=0.5
X225 CSoutput.t7 a_n7636_8799.t92 vdd.t196 vdd.t178 sky130_fd_pr__pfet_01v8 ad=1.32 pd=8.33 as=1.32 ps=8.33 w=8 l=0.5
X226 gnd.t237 commonsourceibias.t58 commonsourceibias.t59 gnd.t206 sky130_fd_pr__nfet_01v8 ad=1.155 pd=7.33 as=1.155 ps=7.33 w=7 l=1
X227 vdd.t44 vdd.t41 vdd.t43 vdd.t42 sky130_fd_pr__pfet_01v8 ad=3.12 pd=16.78 as=0 ps=0 w=8 l=0.5
X228 gnd.t83 gnd.t80 gnd.t82 gnd.t81 sky130_fd_pr__nfet_01v8 ad=2.73 pd=14.78 as=0 ps=0 w=7 l=1
X229 a_n3106_n452.t54 diffpairibias.t21 gnd.t319 gnd.t318 sky130_fd_pr__nfet_01v8 ad=2.73 pd=14.78 as=2.73 ps=14.78 w=7 l=1
X230 minus.t2 gnd.t77 gnd.t79 gnd.t78 sky130_fd_pr__nfet_01v8 ad=0.165 pd=1.33 as=0.165 ps=1.33 w=1 l=0.5
X231 gnd.t76 gnd.t73 gnd.t75 gnd.t74 sky130_fd_pr__nfet_01v8 ad=2.73 pd=14.78 as=0 ps=0 w=7 l=1
X232 CSoutput.t133 commonsourceibias.t106 gnd.t236 gnd.t211 sky130_fd_pr__nfet_01v8 ad=1.155 pd=7.33 as=1.155 ps=7.33 w=7 l=1
X233 vdd.t40 vdd.t37 vdd.t39 vdd.t38 sky130_fd_pr__pfet_01v8 ad=3.12 pd=16.78 as=0 ps=0 w=8 l=0.5
X234 vdd.t123 a_n2848_n452.t74 a_n2318_8322.t2 vdd.t122 sky130_fd_pr__pfet_01v8 ad=1.485 pd=9.33 as=1.485 ps=9.33 w=9 l=0.5
X235 a_n2318_8322.t15 a_n2848_n452.t75 a_n7636_8799.t11 vdd.t124 sky130_fd_pr__pfet_01v8 ad=1.485 pd=9.33 as=1.485 ps=9.33 w=9 l=0.5
X236 CSoutput.t13 a_n7636_8799.t93 vdd.t195 vdd.t194 sky130_fd_pr__pfet_01v8 ad=1.32 pd=8.33 as=1.32 ps=8.33 w=8 l=0.5
X237 a_n7636_8799.t22 plus.t21 a_n3106_n452.t17 gnd.t131 sky130_fd_pr__nfet_01v8 ad=1.155 pd=7.33 as=1.155 ps=7.33 w=7 l=0.9
X238 vdd.t193 a_n7636_8799.t94 CSoutput.t6 vdd.t129 sky130_fd_pr__pfet_01v8 ad=1.32 pd=8.33 as=1.32 ps=8.33 w=8 l=0.5
X239 a_n2848_n452.t49 minus.t19 a_n3106_n452.t44 gnd.t170 sky130_fd_pr__nfet_01v8 ad=1.155 pd=7.33 as=1.155 ps=7.33 w=7 l=0.9
X240 CSoutput.t132 commonsourceibias.t107 gnd.t235 gnd.t184 sky130_fd_pr__nfet_01v8 ad=1.155 pd=7.33 as=1.155 ps=7.33 w=7 l=1
X241 CSoutput.t59 a_n7636_8799.t95 vdd.t192 vdd.t147 sky130_fd_pr__pfet_01v8 ad=1.32 pd=8.33 as=1.32 ps=8.33 w=8 l=0.5
X242 a_n3106_n452.t43 minus.t20 a_n2848_n452.t48 gnd.t169 sky130_fd_pr__nfet_01v8 ad=2.73 pd=14.78 as=1.155 ps=7.33 w=7 l=0.9
X243 gnd.t234 commonsourceibias.t108 CSoutput.t131 gnd.t233 sky130_fd_pr__nfet_01v8 ad=2.73 pd=14.78 as=1.155 ps=7.33 w=7 l=1
X244 vdd.t191 a_n7636_8799.t96 CSoutput.t31 vdd.t173 sky130_fd_pr__pfet_01v8 ad=1.32 pd=8.33 as=1.32 ps=8.33 w=8 l=0.5
X245 vdd.t190 a_n7636_8799.t97 CSoutput.t144 vdd.t141 sky130_fd_pr__pfet_01v8 ad=1.32 pd=8.33 as=1.32 ps=8.33 w=8 l=0.5
X246 gnd.t232 commonsourceibias.t8 commonsourceibias.t9 gnd.t231 sky130_fd_pr__nfet_01v8 ad=1.155 pd=7.33 as=1.155 ps=7.33 w=7 l=1
X247 gnd.t72 gnd.t69 gnd.t71 gnd.t70 sky130_fd_pr__nfet_01v8 ad=2.34 pd=12.78 as=0 ps=0 w=6 l=2
X248 CSoutput.t87 commonsourceibias.t109 gnd.t230 gnd.t209 sky130_fd_pr__nfet_01v8 ad=1.155 pd=7.33 as=1.155 ps=7.33 w=7 l=1