* NGSPICE file created from opamp465.ext - technology: sky130A

.subckt opamp465 gnd CSoutput output vdd plus minus commonsourceibias outputibias
+ diffpairibias
X0 gnd.t309 commonsourceibias.t30 commonsourceibias.t31 gnd.t247 sky130_fd_pr__nfet_01v8 ad=1.155 pd=7.33 as=1.155 ps=7.33 w=7 l=1
X1 a_n9628_8799.t36 plus.t5 a_n3827_n3924.t23 gnd.t11 sky130_fd_pr__nfet_01v8 ad=1.155 pd=7.33 as=1.155 ps=7.33 w=7 l=0.7
X2 a_n2804_13878.t28 a_n2982_13878.t53 a_n2982_13878.t54 vdd.t283 sky130_fd_pr__pfet_01v8 ad=1.485 pd=9.33 as=1.485 ps=9.33 w=9 l=0.5
X3 a_n2804_13878.t4 a_n2982_13878.t64 vdd.t296 vdd.t295 sky130_fd_pr__pfet_01v8 ad=1.485 pd=9.33 as=1.485 ps=9.33 w=9 l=0.5
X4 vdd.t237 a_n9628_8799.t40 CSoutput.t119 vdd.t170 sky130_fd_pr__pfet_01v8 ad=1.32 pd=8.33 as=1.32 ps=8.33 w=8 l=0.5
X5 commonsourceibias.t29 commonsourceibias.t28 gnd.t308 gnd.t206 sky130_fd_pr__nfet_01v8 ad=1.155 pd=7.33 as=1.155 ps=7.33 w=7 l=1
X6 CSoutput.t118 a_n9628_8799.t41 vdd.t236 vdd.t102 sky130_fd_pr__pfet_01v8 ad=1.32 pd=8.33 as=1.32 ps=8.33 w=8 l=0.5
X7 a_n3827_n3924.t19 diffpairibias.t20 gnd.t51 gnd.t50 sky130_fd_pr__nfet_01v8 ad=2.73 pd=14.78 as=2.73 ps=14.78 w=7 l=1
X8 a_n3827_n3924.t38 plus.t6 a_n9628_8799.t35 gnd.t27 sky130_fd_pr__nfet_01v8 ad=1.155 pd=7.33 as=1.155 ps=7.33 w=7 l=0.7
X9 plus.t4 gnd.t180 gnd.t182 gnd.t181 sky130_fd_pr__nfet_01v8 ad=0.165 pd=1.33 as=0.165 ps=1.33 w=1 l=0.5
X10 vdd.t235 a_n9628_8799.t42 CSoutput.t117 vdd.t155 sky130_fd_pr__pfet_01v8 ad=1.32 pd=8.33 as=1.32 ps=8.33 w=8 l=0.5
X11 gnd.t307 commonsourceibias.t26 commonsourceibias.t27 gnd.t190 sky130_fd_pr__nfet_01v8 ad=1.155 pd=7.33 as=1.155 ps=7.33 w=7 l=1
X12 a_n2982_8322.t37 a_n2982_13878.t65 a_n9628_8799.t0 vdd.t293 sky130_fd_pr__pfet_01v8 ad=1.485 pd=9.33 as=1.485 ps=9.33 w=9 l=0.5
X13 CSoutput.t116 a_n9628_8799.t43 vdd.t234 vdd.t128 sky130_fd_pr__pfet_01v8 ad=1.32 pd=8.33 as=1.32 ps=8.33 w=8 l=0.5
X14 commonsourceibias.t25 commonsourceibias.t24 gnd.t306 gnd.t216 sky130_fd_pr__nfet_01v8 ad=1.155 pd=7.33 as=1.155 ps=7.33 w=7 l=1
X15 vdd.t233 a_n9628_8799.t44 CSoutput.t115 vdd.t217 sky130_fd_pr__pfet_01v8 ad=1.32 pd=8.33 as=1.32 ps=8.33 w=8 l=0.5
X16 gnd.t305 commonsourceibias.t48 CSoutput.t191 gnd.t242 sky130_fd_pr__nfet_01v8 ad=1.155 pd=7.33 as=1.155 ps=7.33 w=7 l=1
X17 output.t15 CSoutput.t192 vdd.t238 gnd.t33 sky130_fd_pr__nfet_01v8 ad=1.95 pd=10.78 as=0.825 ps=5.33 w=5 l=1
X18 CSoutput.t114 a_n9628_8799.t45 vdd.t232 vdd.t131 sky130_fd_pr__pfet_01v8 ad=1.32 pd=8.33 as=1.32 ps=8.33 w=8 l=0.5
X19 vdd.t239 CSoutput.t193 output.t14 gnd.t34 sky130_fd_pr__nfet_01v8 ad=0.825 pd=5.33 as=0.825 ps=5.33 w=5 l=1
X20 vdd.t231 a_n9628_8799.t46 CSoutput.t113 vdd.t217 sky130_fd_pr__pfet_01v8 ad=1.32 pd=8.33 as=1.32 ps=8.33 w=8 l=0.5
X21 vdd.t229 a_n9628_8799.t47 CSoutput.t112 vdd.t159 sky130_fd_pr__pfet_01v8 ad=3.12 pd=16.78 as=1.32 ps=8.33 w=8 l=0.5
X22 gnd.t179 gnd.t177 gnd.t178 gnd.t104 sky130_fd_pr__nfet_01v8 ad=2.73 pd=14.78 as=0 ps=0 w=7 l=1
X23 CSoutput.t111 a_n9628_8799.t48 vdd.t230 vdd.t206 sky130_fd_pr__pfet_01v8 ad=1.32 pd=8.33 as=1.32 ps=8.33 w=8 l=0.5
X24 a_n9628_8799.t14 a_n2982_13878.t66 a_n2982_8322.t36 vdd.t279 sky130_fd_pr__pfet_01v8 ad=1.485 pd=9.33 as=1.485 ps=9.33 w=9 l=0.5
X25 vdd.t228 a_n9628_8799.t49 CSoutput.t110 vdd.t88 sky130_fd_pr__pfet_01v8 ad=1.32 pd=8.33 as=1.32 ps=8.33 w=8 l=0.5
X26 a_n2982_13878.t4 minus.t5 a_n3827_n3924.t5 gnd.t10 sky130_fd_pr__nfet_01v8 ad=1.155 pd=7.33 as=1.155 ps=7.33 w=7 l=0.7
X27 vdd.t227 a_n9628_8799.t50 CSoutput.t109 vdd.t190 sky130_fd_pr__pfet_01v8 ad=1.32 pd=8.33 as=1.32 ps=8.33 w=8 l=0.5
X28 commonsourceibias.t23 commonsourceibias.t22 gnd.t304 gnd.t245 sky130_fd_pr__nfet_01v8 ad=1.155 pd=7.33 as=1.155 ps=7.33 w=7 l=1
X29 CSoutput.t108 a_n9628_8799.t51 vdd.t226 vdd.t146 sky130_fd_pr__pfet_01v8 ad=1.32 pd=8.33 as=1.32 ps=8.33 w=8 l=0.5
X30 a_n9628_8799.t20 a_n2982_13878.t67 a_n2982_8322.t35 vdd.t242 sky130_fd_pr__pfet_01v8 ad=1.485 pd=9.33 as=3.51 ps=18.78 w=9 l=0.5
X31 gnd.t300 commonsourceibias.t49 CSoutput.t190 gnd.t200 sky130_fd_pr__nfet_01v8 ad=1.155 pd=7.33 as=1.155 ps=7.33 w=7 l=1
X32 CSoutput.t189 commonsourceibias.t50 gnd.t303 gnd.t210 sky130_fd_pr__nfet_01v8 ad=1.155 pd=7.33 as=1.155 ps=7.33 w=7 l=1
X33 a_n3827_n3924.t40 minus.t6 a_n2982_13878.t63 gnd.t5 sky130_fd_pr__nfet_01v8 ad=2.73 pd=14.78 as=1.155 ps=7.33 w=7 l=0.7
X34 gnd.t176 gnd.t174 minus.t4 gnd.t175 sky130_fd_pr__nfet_01v8 ad=0.165 pd=1.33 as=0.39 ps=2.78 w=1 l=0.5
X35 gnd.t302 commonsourceibias.t18 commonsourceibias.t19 gnd.t242 sky130_fd_pr__nfet_01v8 ad=1.155 pd=7.33 as=1.155 ps=7.33 w=7 l=1
X36 vdd.t240 CSoutput.t194 output.t13 gnd.t35 sky130_fd_pr__nfet_01v8 ad=0.825 pd=5.33 as=1.95 ps=10.78 w=5 l=1
X37 CSoutput.t107 a_n9628_8799.t52 vdd.t225 vdd.t162 sky130_fd_pr__pfet_01v8 ad=1.32 pd=8.33 as=1.32 ps=8.33 w=8 l=0.5
X38 a_n3827_n3924.t10 diffpairibias.t21 gnd.t26 gnd.t25 sky130_fd_pr__nfet_01v8 ad=2.73 pd=14.78 as=2.73 ps=14.78 w=7 l=1
X39 commonsourceibias.t17 commonsourceibias.t16 gnd.t301 gnd.t192 sky130_fd_pr__nfet_01v8 ad=1.155 pd=7.33 as=2.73 ps=14.78 w=7 l=1
X40 CSoutput.t106 a_n9628_8799.t53 vdd.t224 vdd.t80 sky130_fd_pr__pfet_01v8 ad=1.32 pd=8.33 as=1.32 ps=8.33 w=8 l=0.5
X41 vdd.t223 a_n9628_8799.t54 CSoutput.t105 vdd.t94 sky130_fd_pr__pfet_01v8 ad=1.32 pd=8.33 as=1.32 ps=8.33 w=8 l=0.5
X42 gnd.t173 gnd.t171 gnd.t172 gnd.t121 sky130_fd_pr__nfet_01v8 ad=2.73 pd=14.78 as=0 ps=0 w=7 l=0.7
X43 vdd.t222 a_n9628_8799.t55 CSoutput.t104 vdd.t88 sky130_fd_pr__pfet_01v8 ad=1.32 pd=8.33 as=1.32 ps=8.33 w=8 l=0.5
X44 output.t16 outputibias.t8 gnd.t17 gnd.t16 sky130_fd_pr__nfet_01v8 ad=2.34 pd=12.78 as=2.34 ps=12.78 w=6 l=2
X45 CSoutput.t195 a_n2982_8322.t5 sky130_fd_pr__cap_mim_m3_1 l=12 w=12
X46 vdd.t75 vdd.t73 vdd.t74 vdd.t64 sky130_fd_pr__pfet_01v8 ad=3.12 pd=16.78 as=0 ps=0 w=8 l=0.5
X47 a_n3827_n3924.t24 plus.t7 a_n9628_8799.t34 gnd.t1 sky130_fd_pr__nfet_01v8 ad=1.155 pd=7.33 as=1.155 ps=7.33 w=7 l=0.7
X48 gnd.t299 commonsourceibias.t14 commonsourceibias.t15 gnd.t237 sky130_fd_pr__nfet_01v8 ad=1.155 pd=7.33 as=1.155 ps=7.33 w=7 l=1
X49 CSoutput.t188 commonsourceibias.t51 gnd.t298 gnd.t202 sky130_fd_pr__nfet_01v8 ad=1.155 pd=7.33 as=2.73 ps=14.78 w=7 l=1
X50 vdd.t221 a_n9628_8799.t56 CSoutput.t103 vdd.t155 sky130_fd_pr__pfet_01v8 ad=1.32 pd=8.33 as=1.32 ps=8.33 w=8 l=0.5
X51 vdd.t76 CSoutput.t196 output.t12 gnd.t12 sky130_fd_pr__nfet_01v8 ad=0.825 pd=5.33 as=0.825 ps=5.33 w=5 l=1
X52 a_n2804_13878.t27 a_n2982_13878.t21 a_n2982_13878.t22 vdd.t250 sky130_fd_pr__pfet_01v8 ad=1.485 pd=9.33 as=1.485 ps=9.33 w=9 l=0.5
X53 output.t11 CSoutput.t197 vdd.t77 gnd.t13 sky130_fd_pr__nfet_01v8 ad=0.825 pd=5.33 as=0.825 ps=5.33 w=5 l=1
X54 a_n2982_13878.t46 a_n2982_13878.t45 a_n2804_13878.t26 vdd.t263 sky130_fd_pr__pfet_01v8 ad=1.485 pd=9.33 as=1.485 ps=9.33 w=9 l=0.5
X55 vdd.t72 vdd.t70 vdd.t71 vdd.t64 sky130_fd_pr__pfet_01v8 ad=3.12 pd=16.78 as=0 ps=0 w=8 l=0.5
X56 a_n9628_8799.t33 plus.t8 a_n3827_n3924.t27 gnd.t22 sky130_fd_pr__nfet_01v8 ad=1.155 pd=7.33 as=1.155 ps=7.33 w=7 l=0.7
X57 CSoutput.t102 a_n9628_8799.t57 vdd.t220 vdd.t131 sky130_fd_pr__pfet_01v8 ad=1.32 pd=8.33 as=1.32 ps=8.33 w=8 l=0.5
X58 vdd.t69 vdd.t67 vdd.t68 vdd.t46 sky130_fd_pr__pfet_01v8 ad=3.51 pd=18.78 as=0 ps=0 w=9 l=0.5
X59 vdd.t219 a_n9628_8799.t58 CSoutput.t101 vdd.t159 sky130_fd_pr__pfet_01v8 ad=3.12 pd=16.78 as=1.32 ps=8.33 w=8 l=0.5
X60 vdd.t218 a_n9628_8799.t59 CSoutput.t100 vdd.t217 sky130_fd_pr__pfet_01v8 ad=1.32 pd=8.33 as=1.32 ps=8.33 w=8 l=0.5
X61 gnd.t170 gnd.t167 gnd.t169 gnd.t168 sky130_fd_pr__nfet_01v8 ad=1.95 pd=10.78 as=0 ps=0 w=5 l=1
X62 diffpairibias.t19 diffpairibias.t18 gnd.t41 gnd.t40 sky130_fd_pr__nfet_01v8 ad=2.73 pd=14.78 as=2.73 ps=14.78 w=7 l=1
X63 CSoutput.t99 a_n9628_8799.t60 vdd.t216 vdd.t206 sky130_fd_pr__pfet_01v8 ad=1.32 pd=8.33 as=1.32 ps=8.33 w=8 l=0.5
X64 a_n2982_13878.t1 minus.t7 a_n3827_n3924.t1 gnd.t2 sky130_fd_pr__nfet_01v8 ad=1.155 pd=7.33 as=1.155 ps=7.33 w=7 l=0.7
X65 a_n2982_13878.t48 a_n2982_13878.t47 a_n2804_13878.t25 vdd.t278 sky130_fd_pr__pfet_01v8 ad=1.485 pd=9.33 as=1.485 ps=9.33 w=9 l=0.5
X66 CSoutput.t98 a_n9628_8799.t61 vdd.t215 vdd.t188 sky130_fd_pr__pfet_01v8 ad=1.32 pd=8.33 as=1.32 ps=8.33 w=8 l=0.5
X67 CSoutput.t187 commonsourceibias.t52 gnd.t297 gnd.t259 sky130_fd_pr__nfet_01v8 ad=1.155 pd=7.33 as=1.155 ps=7.33 w=7 l=1
X68 CSoutput.t186 commonsourceibias.t53 gnd.t296 gnd.t234 sky130_fd_pr__nfet_01v8 ad=1.155 pd=7.33 as=1.155 ps=7.33 w=7 l=1
X69 vdd.t214 a_n9628_8799.t62 CSoutput.t97 vdd.t82 sky130_fd_pr__pfet_01v8 ad=1.32 pd=8.33 as=1.32 ps=8.33 w=8 l=0.5
X70 a_n9628_8799.t9 a_n2982_13878.t68 a_n2982_8322.t34 vdd.t273 sky130_fd_pr__pfet_01v8 ad=1.485 pd=9.33 as=1.485 ps=9.33 w=9 l=0.5
X71 CSoutput.t96 a_n9628_8799.t63 vdd.t212 vdd.t174 sky130_fd_pr__pfet_01v8 ad=1.32 pd=8.33 as=1.32 ps=8.33 w=8 l=0.5
X72 CSoutput.t198 a_n2982_8322.t4 sky130_fd_pr__cap_mim_m3_1 l=12 w=12
X73 a_n2982_13878.t24 a_n2982_13878.t23 a_n2804_13878.t24 vdd.t294 sky130_fd_pr__pfet_01v8 ad=1.485 pd=9.33 as=1.485 ps=9.33 w=9 l=0.5
X74 gnd.t166 gnd.t164 gnd.t165 gnd.t79 sky130_fd_pr__nfet_01v8 ad=2.73 pd=14.78 as=0 ps=0 w=7 l=1
X75 vdd.t213 a_n9628_8799.t64 CSoutput.t95 vdd.t106 sky130_fd_pr__pfet_01v8 ad=1.32 pd=8.33 as=1.32 ps=8.33 w=8 l=0.5
X76 vdd.t211 a_n9628_8799.t65 CSoutput.t94 vdd.t190 sky130_fd_pr__pfet_01v8 ad=1.32 pd=8.33 as=1.32 ps=8.33 w=8 l=0.5
X77 a_n9628_8799.t5 a_n2982_13878.t69 a_n2982_8322.t33 vdd.t271 sky130_fd_pr__pfet_01v8 ad=1.485 pd=9.33 as=1.485 ps=9.33 w=9 l=0.5
X78 CSoutput.t93 a_n9628_8799.t66 vdd.t210 vdd.t146 sky130_fd_pr__pfet_01v8 ad=1.32 pd=8.33 as=1.32 ps=8.33 w=8 l=0.5
X79 diffpairibias.t17 diffpairibias.t16 gnd.t24 gnd.t23 sky130_fd_pr__nfet_01v8 ad=2.73 pd=14.78 as=2.73 ps=14.78 w=7 l=1
X80 CSoutput.t92 a_n9628_8799.t67 vdd.t209 vdd.t109 sky130_fd_pr__pfet_01v8 ad=1.32 pd=8.33 as=1.32 ps=8.33 w=8 l=0.5
X81 gnd.t163 gnd.t161 gnd.t162 gnd.t79 sky130_fd_pr__nfet_01v8 ad=2.73 pd=14.78 as=0 ps=0 w=7 l=1
X82 a_n9628_8799.t8 a_n2982_13878.t70 a_n2982_8322.t32 vdd.t288 sky130_fd_pr__pfet_01v8 ad=1.485 pd=9.33 as=1.485 ps=9.33 w=9 l=0.5
X83 a_n2982_8322.t31 a_n2982_13878.t71 a_n9628_8799.t4 vdd.t294 sky130_fd_pr__pfet_01v8 ad=1.485 pd=9.33 as=1.485 ps=9.33 w=9 l=0.5
X84 CSoutput.t185 commonsourceibias.t54 gnd.t295 gnd.t234 sky130_fd_pr__nfet_01v8 ad=1.155 pd=7.33 as=1.155 ps=7.33 w=7 l=1
X85 CSoutput.t91 a_n9628_8799.t68 vdd.t208 vdd.t144 sky130_fd_pr__pfet_01v8 ad=1.32 pd=8.33 as=1.32 ps=8.33 w=8 l=0.5
X86 output.t10 CSoutput.t199 vdd.t301 gnd.t183 sky130_fd_pr__nfet_01v8 ad=0.825 pd=5.33 as=0.825 ps=5.33 w=5 l=1
X87 gnd.t294 commonsourceibias.t55 CSoutput.t184 gnd.t220 sky130_fd_pr__nfet_01v8 ad=2.73 pd=14.78 as=1.155 ps=7.33 w=7 l=1
X88 vdd.t302 CSoutput.t200 output.t9 gnd.t184 sky130_fd_pr__nfet_01v8 ad=0.825 pd=5.33 as=0.825 ps=5.33 w=5 l=1
X89 CSoutput.t183 commonsourceibias.t56 gnd.t293 gnd.t231 sky130_fd_pr__nfet_01v8 ad=1.155 pd=7.33 as=1.155 ps=7.33 w=7 l=1
X90 gnd.t292 commonsourceibias.t57 CSoutput.t182 gnd.t208 sky130_fd_pr__nfet_01v8 ad=2.73 pd=14.78 as=1.155 ps=7.33 w=7 l=1
X91 vdd.t66 vdd.t63 vdd.t65 vdd.t64 sky130_fd_pr__pfet_01v8 ad=3.12 pd=16.78 as=0 ps=0 w=8 l=0.5
X92 a_n3827_n3924.t26 plus.t9 a_n9628_8799.t32 gnd.t56 sky130_fd_pr__nfet_01v8 ad=2.73 pd=14.78 as=1.155 ps=7.33 w=7 l=0.7
X93 gnd.t160 gnd.t158 minus.t3 gnd.t159 sky130_fd_pr__nfet_01v8 ad=0.165 pd=1.33 as=0.165 ps=1.33 w=1 l=0.5
X94 gnd.t157 gnd.t155 gnd.t156 gnd.t104 sky130_fd_pr__nfet_01v8 ad=2.73 pd=14.78 as=0 ps=0 w=7 l=1
X95 a_n3827_n3924.t18 diffpairibias.t22 gnd.t49 gnd.t48 sky130_fd_pr__nfet_01v8 ad=2.73 pd=14.78 as=2.73 ps=14.78 w=7 l=1
X96 CSoutput.t90 a_n9628_8799.t69 vdd.t207 vdd.t206 sky130_fd_pr__pfet_01v8 ad=1.32 pd=8.33 as=1.32 ps=8.33 w=8 l=0.5
X97 vdd.t205 a_n9628_8799.t70 CSoutput.t89 vdd.t157 sky130_fd_pr__pfet_01v8 ad=1.32 pd=8.33 as=1.32 ps=8.33 w=8 l=0.5
X98 vdd.t204 a_n9628_8799.t71 CSoutput.t88 vdd.t194 sky130_fd_pr__pfet_01v8 ad=1.32 pd=8.33 as=1.32 ps=8.33 w=8 l=0.5
X99 CSoutput.t181 commonsourceibias.t58 gnd.t291 gnd.t196 sky130_fd_pr__nfet_01v8 ad=1.155 pd=7.33 as=1.155 ps=7.33 w=7 l=1
X100 a_n2982_13878.t38 a_n2982_13878.t37 a_n2804_13878.t23 vdd.t293 sky130_fd_pr__pfet_01v8 ad=1.485 pd=9.33 as=1.485 ps=9.33 w=9 l=0.5
X101 vdd.t203 a_n9628_8799.t72 CSoutput.t87 vdd.t168 sky130_fd_pr__pfet_01v8 ad=1.32 pd=8.33 as=1.32 ps=8.33 w=8 l=0.5
X102 a_n9628_8799.t15 a_n2982_13878.t72 a_n2982_8322.t30 vdd.t282 sky130_fd_pr__pfet_01v8 ad=1.485 pd=9.33 as=1.485 ps=9.33 w=9 l=0.5
X103 a_n2982_13878.t34 a_n2982_13878.t33 a_n2804_13878.t22 vdd.t245 sky130_fd_pr__pfet_01v8 ad=3.51 pd=18.78 as=1.485 ps=9.33 w=9 l=0.5
X104 vdd.t303 CSoutput.t201 output.t8 gnd.t185 sky130_fd_pr__nfet_01v8 ad=0.825 pd=5.33 as=0.825 ps=5.33 w=5 l=1
X105 commonsourceibias.t13 commonsourceibias.t12 gnd.t290 gnd.t210 sky130_fd_pr__nfet_01v8 ad=1.155 pd=7.33 as=1.155 ps=7.33 w=7 l=1
X106 gnd.t289 commonsourceibias.t59 CSoutput.t180 gnd.t218 sky130_fd_pr__nfet_01v8 ad=1.155 pd=7.33 as=1.155 ps=7.33 w=7 l=1
X107 CSoutput.t179 commonsourceibias.t60 gnd.t288 gnd.t206 sky130_fd_pr__nfet_01v8 ad=1.155 pd=7.33 as=1.155 ps=7.33 w=7 l=1
X108 vdd.t202 a_n9628_8799.t73 CSoutput.t86 vdd.t164 sky130_fd_pr__pfet_01v8 ad=3.12 pd=16.78 as=1.32 ps=8.33 w=8 l=0.5
X109 CSoutput.t85 a_n9628_8799.t74 vdd.t201 vdd.t188 sky130_fd_pr__pfet_01v8 ad=1.32 pd=8.33 as=1.32 ps=8.33 w=8 l=0.5
X110 gnd.t154 gnd.t152 gnd.t153 gnd.t97 sky130_fd_pr__nfet_01v8 ad=2.73 pd=14.78 as=0 ps=0 w=7 l=1
X111 CSoutput.t84 a_n9628_8799.t75 vdd.t200 vdd.t100 sky130_fd_pr__pfet_01v8 ad=1.32 pd=8.33 as=3.12 ps=16.78 w=8 l=0.5
X112 diffpairibias.t15 diffpairibias.t14 gnd.t43 gnd.t42 sky130_fd_pr__nfet_01v8 ad=2.73 pd=14.78 as=2.73 ps=14.78 w=7 l=1
X113 a_n2982_13878.t2 minus.t8 a_n3827_n3924.t2 gnd.t3 sky130_fd_pr__nfet_01v8 ad=1.155 pd=7.33 as=1.155 ps=7.33 w=7 l=0.7
X114 vdd.t62 vdd.t60 vdd.t61 vdd.t53 sky130_fd_pr__pfet_01v8 ad=3.51 pd=18.78 as=0 ps=0 w=9 l=0.5
X115 output.t7 CSoutput.t202 vdd.t304 gnd.t186 sky130_fd_pr__nfet_01v8 ad=0.825 pd=5.33 as=0.825 ps=5.33 w=5 l=1
X116 CSoutput.t83 a_n9628_8799.t76 vdd.t199 vdd.t109 sky130_fd_pr__pfet_01v8 ad=1.32 pd=8.33 as=1.32 ps=8.33 w=8 l=0.5
X117 vdd.t59 vdd.t56 vdd.t58 vdd.t57 sky130_fd_pr__pfet_01v8 ad=3.51 pd=18.78 as=0 ps=0 w=9 l=0.5
X118 gnd.t151 gnd.t149 gnd.t150 gnd.t93 sky130_fd_pr__nfet_01v8 ad=2.73 pd=14.78 as=0 ps=0 w=7 l=0.7
X119 a_n2804_13878.t21 a_n2982_13878.t29 a_n2982_13878.t30 vdd.t255 sky130_fd_pr__pfet_01v8 ad=1.485 pd=9.33 as=3.51 ps=18.78 w=9 l=0.5
X120 a_n3827_n3924.t0 minus.t9 a_n2982_13878.t0 gnd.t0 sky130_fd_pr__nfet_01v8 ad=1.155 pd=7.33 as=1.155 ps=7.33 w=7 l=0.7
X121 CSoutput.t82 a_n9628_8799.t77 vdd.t198 vdd.t78 sky130_fd_pr__pfet_01v8 ad=1.32 pd=8.33 as=1.32 ps=8.33 w=8 l=0.5
X122 vdd.t197 a_n9628_8799.t78 CSoutput.t81 vdd.t194 sky130_fd_pr__pfet_01v8 ad=1.32 pd=8.33 as=1.32 ps=8.33 w=8 l=0.5
X123 vdd.t292 a_n2982_13878.t73 a_n2982_8322.t13 vdd.t291 sky130_fd_pr__pfet_01v8 ad=1.485 pd=9.33 as=1.485 ps=9.33 w=9 l=0.5
X124 gnd.t287 commonsourceibias.t46 commonsourceibias.t47 gnd.t204 sky130_fd_pr__nfet_01v8 ad=1.155 pd=7.33 as=1.155 ps=7.33 w=7 l=1
X125 a_n2982_13878.t42 a_n2982_13878.t41 a_n2804_13878.t20 vdd.t253 sky130_fd_pr__pfet_01v8 ad=1.485 pd=9.33 as=1.485 ps=9.33 w=9 l=0.5
X126 CSoutput.t178 commonsourceibias.t61 gnd.t286 gnd.t245 sky130_fd_pr__nfet_01v8 ad=1.155 pd=7.33 as=1.155 ps=7.33 w=7 l=1
X127 a_n2982_8322.t12 a_n2982_13878.t74 vdd.t287 vdd.t286 sky130_fd_pr__pfet_01v8 ad=1.485 pd=9.33 as=1.485 ps=9.33 w=9 l=0.5
X128 a_n3827_n3924.t15 diffpairibias.t23 gnd.t30 gnd.t29 sky130_fd_pr__nfet_01v8 ad=2.73 pd=14.78 as=2.73 ps=14.78 w=7 l=1
X129 CSoutput.t80 a_n9628_8799.t79 vdd.t196 vdd.t144 sky130_fd_pr__pfet_01v8 ad=1.32 pd=8.33 as=1.32 ps=8.33 w=8 l=0.5
X130 output.t6 CSoutput.t203 vdd.t305 gnd.t187 sky130_fd_pr__nfet_01v8 ad=0.825 pd=5.33 as=0.825 ps=5.33 w=5 l=1
X131 gnd.t285 commonsourceibias.t62 CSoutput.t177 gnd.t247 sky130_fd_pr__nfet_01v8 ad=1.155 pd=7.33 as=1.155 ps=7.33 w=7 l=1
X132 a_n3827_n3924.t14 minus.t10 a_n2982_13878.t12 gnd.t28 sky130_fd_pr__nfet_01v8 ad=1.155 pd=7.33 as=1.155 ps=7.33 w=7 l=0.7
X133 gnd.t148 gnd.t146 plus.t3 gnd.t147 sky130_fd_pr__nfet_01v8 ad=0.165 pd=1.33 as=0.39 ps=2.78 w=1 l=0.5
X134 commonsourceibias.t45 commonsourceibias.t44 gnd.t284 gnd.t202 sky130_fd_pr__nfet_01v8 ad=1.155 pd=7.33 as=2.73 ps=14.78 w=7 l=1
X135 vdd.t290 a_n2982_13878.t75 a_n2804_13878.t29 vdd.t289 sky130_fd_pr__pfet_01v8 ad=1.485 pd=9.33 as=1.485 ps=9.33 w=9 l=0.5
X136 gnd.t283 commonsourceibias.t63 CSoutput.t176 gnd.t227 sky130_fd_pr__nfet_01v8 ad=1.155 pd=7.33 as=1.155 ps=7.33 w=7 l=1
X137 gnd.t145 gnd.t143 gnd.t144 gnd.t97 sky130_fd_pr__nfet_01v8 ad=2.73 pd=14.78 as=0 ps=0 w=7 l=1
X138 a_n3827_n3924.t32 plus.t10 a_n9628_8799.t31 gnd.t21 sky130_fd_pr__nfet_01v8 ad=1.155 pd=7.33 as=1.155 ps=7.33 w=7 l=0.7
X139 gnd.t142 gnd.t140 gnd.t141 gnd.t71 sky130_fd_pr__nfet_01v8 ad=2.73 pd=14.78 as=0 ps=0 w=7 l=1
X140 vdd.t55 vdd.t52 vdd.t54 vdd.t53 sky130_fd_pr__pfet_01v8 ad=3.51 pd=18.78 as=0 ps=0 w=9 l=0.5
X141 gnd.t282 commonsourceibias.t42 commonsourceibias.t43 gnd.t200 sky130_fd_pr__nfet_01v8 ad=1.155 pd=7.33 as=1.155 ps=7.33 w=7 l=1
X142 a_n2804_13878.t19 a_n2982_13878.t49 a_n2982_13878.t50 vdd.t288 sky130_fd_pr__pfet_01v8 ad=1.485 pd=9.33 as=1.485 ps=9.33 w=9 l=0.5
X143 vdd.t195 a_n9628_8799.t80 CSoutput.t79 vdd.t194 sky130_fd_pr__pfet_01v8 ad=1.32 pd=8.33 as=1.32 ps=8.33 w=8 l=0.5
X144 vdd.t193 a_n9628_8799.t81 CSoutput.t78 vdd.t168 sky130_fd_pr__pfet_01v8 ad=1.32 pd=8.33 as=1.32 ps=8.33 w=8 l=0.5
X145 a_n2982_8322.t29 a_n2982_13878.t76 a_n9628_8799.t1 vdd.t272 sky130_fd_pr__pfet_01v8 ad=1.485 pd=9.33 as=1.485 ps=9.33 w=9 l=0.5
X146 CSoutput.t175 commonsourceibias.t64 gnd.t281 gnd.t231 sky130_fd_pr__nfet_01v8 ad=1.155 pd=7.33 as=1.155 ps=7.33 w=7 l=1
X147 a_n9628_8799.t30 plus.t11 a_n3827_n3924.t30 gnd.t4 sky130_fd_pr__nfet_01v8 ad=1.155 pd=7.33 as=2.73 ps=14.78 w=7 l=0.7
X148 a_n9628_8799.t29 plus.t12 a_n3827_n3924.t31 gnd.t20 sky130_fd_pr__nfet_01v8 ad=1.155 pd=7.33 as=2.73 ps=14.78 w=7 l=0.7
X149 vdd.t51 vdd.t49 vdd.t50 vdd.t26 sky130_fd_pr__pfet_01v8 ad=3.12 pd=16.78 as=0 ps=0 w=8 l=0.5
X150 commonsourceibias.t41 commonsourceibias.t40 gnd.t280 gnd.t194 sky130_fd_pr__nfet_01v8 ad=1.155 pd=7.33 as=1.155 ps=7.33 w=7 l=1
X151 vdd.t48 vdd.t45 vdd.t47 vdd.t46 sky130_fd_pr__pfet_01v8 ad=3.51 pd=18.78 as=0 ps=0 w=9 l=0.5
X152 a_n2982_8322.t11 a_n2982_13878.t77 vdd.t285 vdd.t284 sky130_fd_pr__pfet_01v8 ad=3.51 pd=18.78 as=1.485 ps=9.33 w=9 l=0.5
X153 gnd.t279 commonsourceibias.t65 CSoutput.t174 gnd.t212 sky130_fd_pr__nfet_01v8 ad=1.155 pd=7.33 as=1.155 ps=7.33 w=7 l=1
X154 a_n9628_8799.t6 a_n2982_13878.t78 a_n2982_8322.t28 vdd.t252 sky130_fd_pr__pfet_01v8 ad=1.485 pd=9.33 as=1.485 ps=9.33 w=9 l=0.5
X155 CSoutput.t77 a_n9628_8799.t82 vdd.t192 vdd.t123 sky130_fd_pr__pfet_01v8 ad=1.32 pd=8.33 as=1.32 ps=8.33 w=8 l=0.5
X156 diffpairibias.t13 diffpairibias.t12 gnd.t19 gnd.t18 sky130_fd_pr__nfet_01v8 ad=2.73 pd=14.78 as=2.73 ps=14.78 w=7 l=1
X157 vdd.t191 a_n9628_8799.t83 CSoutput.t76 vdd.t190 sky130_fd_pr__pfet_01v8 ad=1.32 pd=8.33 as=1.32 ps=8.33 w=8 l=0.5
X158 a_n2982_13878.t11 minus.t11 a_n3827_n3924.t13 gnd.t7 sky130_fd_pr__nfet_01v8 ad=1.155 pd=7.33 as=1.155 ps=7.33 w=7 l=0.7
X159 a_n2982_13878.t40 a_n2982_13878.t39 a_n2804_13878.t18 vdd.t264 sky130_fd_pr__pfet_01v8 ad=1.485 pd=9.33 as=1.485 ps=9.33 w=9 l=0.5
X160 a_n9628_8799.t38 a_n2982_13878.t79 a_n2982_8322.t27 vdd.t283 sky130_fd_pr__pfet_01v8 ad=1.485 pd=9.33 as=1.485 ps=9.33 w=9 l=0.5
X161 CSoutput.t75 a_n9628_8799.t84 vdd.t189 vdd.t188 sky130_fd_pr__pfet_01v8 ad=1.32 pd=8.33 as=1.32 ps=8.33 w=8 l=0.5
X162 CSoutput.t74 a_n9628_8799.t85 vdd.t187 vdd.t153 sky130_fd_pr__pfet_01v8 ad=1.32 pd=8.33 as=1.32 ps=8.33 w=8 l=0.5
X163 a_n2804_13878.t17 a_n2982_13878.t35 a_n2982_13878.t36 vdd.t282 sky130_fd_pr__pfet_01v8 ad=1.485 pd=9.33 as=1.485 ps=9.33 w=9 l=0.5
X164 gnd.t139 gnd.t136 gnd.t138 gnd.t137 sky130_fd_pr__nfet_01v8 ad=1.95 pd=10.78 as=0 ps=0 w=5 l=1
X165 a_n3827_n3924.t12 minus.t12 a_n2982_13878.t10 gnd.t6 sky130_fd_pr__nfet_01v8 ad=1.155 pd=7.33 as=1.155 ps=7.33 w=7 l=0.7
X166 gnd.t278 commonsourceibias.t66 CSoutput.t173 gnd.t214 sky130_fd_pr__nfet_01v8 ad=1.155 pd=7.33 as=1.155 ps=7.33 w=7 l=1
X167 minus.t2 gnd.t133 gnd.t135 gnd.t134 sky130_fd_pr__nfet_01v8 ad=0.165 pd=1.33 as=0.165 ps=1.33 w=1 l=0.5
X168 gnd.t277 commonsourceibias.t67 CSoutput.t172 gnd.t204 sky130_fd_pr__nfet_01v8 ad=1.155 pd=7.33 as=1.155 ps=7.33 w=7 l=1
X169 vdd.t44 vdd.t42 vdd.t43 vdd.t5 sky130_fd_pr__pfet_01v8 ad=3.51 pd=18.78 as=0 ps=0 w=9 l=0.5
X170 outputibias.t7 outputibias.t6 gnd.t327 gnd.t326 sky130_fd_pr__nfet_01v8 ad=2.34 pd=12.78 as=2.34 ps=12.78 w=6 l=2
X171 vdd.t306 CSoutput.t204 output.t5 gnd.t188 sky130_fd_pr__nfet_01v8 ad=0.825 pd=5.33 as=0.825 ps=5.33 w=5 l=1
X172 CSoutput.t73 a_n9628_8799.t86 vdd.t186 vdd.t174 sky130_fd_pr__pfet_01v8 ad=1.32 pd=8.33 as=1.32 ps=8.33 w=8 l=0.5
X173 vdd.t281 a_n2982_13878.t80 a_n2982_8322.t10 vdd.t280 sky130_fd_pr__pfet_01v8 ad=1.485 pd=9.33 as=3.51 ps=18.78 w=9 l=0.5
X174 a_n2804_13878.t16 a_n2982_13878.t43 a_n2982_13878.t44 vdd.t279 sky130_fd_pr__pfet_01v8 ad=1.485 pd=9.33 as=1.485 ps=9.33 w=9 l=0.5
X175 vdd.t185 a_n9628_8799.t87 CSoutput.t72 vdd.t172 sky130_fd_pr__pfet_01v8 ad=1.32 pd=8.33 as=1.32 ps=8.33 w=8 l=0.5
X176 vdd.t184 a_n9628_8799.t88 CSoutput.t71 vdd.t170 sky130_fd_pr__pfet_01v8 ad=1.32 pd=8.33 as=1.32 ps=8.33 w=8 l=0.5
X177 a_n2982_13878.t20 a_n2982_13878.t19 a_n2804_13878.t15 vdd.t249 sky130_fd_pr__pfet_01v8 ad=1.485 pd=9.33 as=1.485 ps=9.33 w=9 l=0.5
X178 gnd.t132 gnd.t130 gnd.t131 gnd.t104 sky130_fd_pr__nfet_01v8 ad=2.73 pd=14.78 as=0 ps=0 w=7 l=1
X179 outputibias.t5 outputibias.t4 gnd.t313 gnd.t312 sky130_fd_pr__nfet_01v8 ad=2.34 pd=12.78 as=2.34 ps=12.78 w=6 l=2
X180 CSoutput.t171 commonsourceibias.t68 gnd.t276 gnd.t196 sky130_fd_pr__nfet_01v8 ad=1.155 pd=7.33 as=1.155 ps=7.33 w=7 l=1
X181 gnd.t275 commonsourceibias.t69 CSoutput.t170 gnd.t220 sky130_fd_pr__nfet_01v8 ad=2.73 pd=14.78 as=1.155 ps=7.33 w=7 l=1
X182 gnd.t274 commonsourceibias.t70 CSoutput.t169 gnd.t218 sky130_fd_pr__nfet_01v8 ad=1.155 pd=7.33 as=1.155 ps=7.33 w=7 l=1
X183 vdd.t183 a_n9628_8799.t89 CSoutput.t70 vdd.t164 sky130_fd_pr__pfet_01v8 ad=3.12 pd=16.78 as=1.32 ps=8.33 w=8 l=0.5
X184 vdd.t182 a_n9628_8799.t90 CSoutput.t69 vdd.t125 sky130_fd_pr__pfet_01v8 ad=1.32 pd=8.33 as=1.32 ps=8.33 w=8 l=0.5
X185 CSoutput.t68 a_n9628_8799.t91 vdd.t181 vdd.t162 sky130_fd_pr__pfet_01v8 ad=1.32 pd=8.33 as=1.32 ps=8.33 w=8 l=0.5
X186 a_n3827_n3924.t41 diffpairibias.t24 gnd.t321 gnd.t320 sky130_fd_pr__nfet_01v8 ad=2.73 pd=14.78 as=2.73 ps=14.78 w=7 l=1
X187 vdd.t41 vdd.t39 vdd.t40 vdd.t13 sky130_fd_pr__pfet_01v8 ad=3.12 pd=16.78 as=0 ps=0 w=8 l=0.5
X188 a_n3827_n3924.t39 diffpairibias.t25 gnd.t315 gnd.t314 sky130_fd_pr__nfet_01v8 ad=2.73 pd=14.78 as=2.73 ps=14.78 w=7 l=1
X189 vdd.t180 a_n9628_8799.t92 CSoutput.t67 vdd.t172 sky130_fd_pr__pfet_01v8 ad=1.32 pd=8.33 as=1.32 ps=8.33 w=8 l=0.5
X190 vdd.t179 a_n9628_8799.t93 CSoutput.t66 vdd.t157 sky130_fd_pr__pfet_01v8 ad=1.32 pd=8.33 as=1.32 ps=8.33 w=8 l=0.5
X191 CSoutput.t65 a_n9628_8799.t94 vdd.t178 vdd.t104 sky130_fd_pr__pfet_01v8 ad=1.32 pd=8.33 as=1.32 ps=8.33 w=8 l=0.5
X192 gnd.t129 gnd.t127 gnd.t128 gnd.t71 sky130_fd_pr__nfet_01v8 ad=2.73 pd=14.78 as=0 ps=0 w=7 l=1
X193 vdd.t38 vdd.t36 vdd.t37 vdd.t26 sky130_fd_pr__pfet_01v8 ad=3.12 pd=16.78 as=0 ps=0 w=8 l=0.5
X194 a_n2804_13878.t14 a_n2982_13878.t17 a_n2982_13878.t18 vdd.t254 sky130_fd_pr__pfet_01v8 ad=1.485 pd=9.33 as=1.485 ps=9.33 w=9 l=0.5
X195 a_n2982_8322.t26 a_n2982_13878.t81 a_n9628_8799.t10 vdd.t278 sky130_fd_pr__pfet_01v8 ad=1.485 pd=9.33 as=1.485 ps=9.33 w=9 l=0.5
X196 CSoutput.t64 a_n9628_8799.t95 vdd.t177 vdd.t153 sky130_fd_pr__pfet_01v8 ad=1.32 pd=8.33 as=1.32 ps=8.33 w=8 l=0.5
X197 CSoutput.t63 a_n9628_8799.t96 vdd.t176 vdd.t86 sky130_fd_pr__pfet_01v8 ad=1.32 pd=8.33 as=1.32 ps=8.33 w=8 l=0.5
X198 CSoutput.t168 commonsourceibias.t71 gnd.t273 gnd.t259 sky130_fd_pr__nfet_01v8 ad=1.155 pd=7.33 as=1.155 ps=7.33 w=7 l=1
X199 gnd.t126 gnd.t124 gnd.t125 gnd.t79 sky130_fd_pr__nfet_01v8 ad=2.73 pd=14.78 as=0 ps=0 w=7 l=1
X200 CSoutput.t205 a_n2982_8322.t3 sky130_fd_pr__cap_mim_m3_1 l=12 w=12
X201 gnd.t272 commonsourceibias.t72 CSoutput.t167 gnd.t227 sky130_fd_pr__nfet_01v8 ad=1.155 pd=7.33 as=1.155 ps=7.33 w=7 l=1
X202 diffpairibias.t11 diffpairibias.t10 gnd.t319 gnd.t318 sky130_fd_pr__nfet_01v8 ad=2.73 pd=14.78 as=2.73 ps=14.78 w=7 l=1
X203 a_n2804_13878.t0 a_n2982_13878.t82 vdd.t277 vdd.t276 sky130_fd_pr__pfet_01v8 ad=1.485 pd=9.33 as=1.485 ps=9.33 w=9 l=0.5
X204 vdd.t275 a_n2982_13878.t83 a_n2804_13878.t1 vdd.t274 sky130_fd_pr__pfet_01v8 ad=1.485 pd=9.33 as=1.485 ps=9.33 w=9 l=0.5
X205 CSoutput.t62 a_n9628_8799.t97 vdd.t175 vdd.t174 sky130_fd_pr__pfet_01v8 ad=1.32 pd=8.33 as=1.32 ps=8.33 w=8 l=0.5
X206 gnd.t271 commonsourceibias.t73 CSoutput.t166 gnd.t242 sky130_fd_pr__nfet_01v8 ad=1.155 pd=7.33 as=1.155 ps=7.33 w=7 l=1
X207 CSoutput.t206 a_n2982_8322.t2 sky130_fd_pr__cap_mim_m3_1 l=12 w=12
X208 CSoutput.t165 commonsourceibias.t74 gnd.t270 gnd.t202 sky130_fd_pr__nfet_01v8 ad=1.155 pd=7.33 as=2.73 ps=14.78 w=7 l=1
X209 vdd.t173 a_n9628_8799.t98 CSoutput.t61 vdd.t172 sky130_fd_pr__pfet_01v8 ad=1.32 pd=8.33 as=1.32 ps=8.33 w=8 l=0.5
X210 vdd.t171 a_n9628_8799.t99 CSoutput.t60 vdd.t170 sky130_fd_pr__pfet_01v8 ad=1.32 pd=8.33 as=1.32 ps=8.33 w=8 l=0.5
X211 gnd.t123 gnd.t120 gnd.t122 gnd.t121 sky130_fd_pr__nfet_01v8 ad=2.73 pd=14.78 as=0 ps=0 w=7 l=0.7
X212 gnd.t119 gnd.t117 plus.t2 gnd.t118 sky130_fd_pr__nfet_01v8 ad=0.165 pd=1.33 as=0.165 ps=1.33 w=1 l=0.5
X213 vdd.t169 a_n9628_8799.t100 CSoutput.t59 vdd.t168 sky130_fd_pr__pfet_01v8 ad=1.32 pd=8.33 as=1.32 ps=8.33 w=8 l=0.5
X214 CSoutput.t58 a_n9628_8799.t101 vdd.t167 vdd.t137 sky130_fd_pr__pfet_01v8 ad=1.32 pd=8.33 as=1.32 ps=8.33 w=8 l=0.5
X215 a_n2804_13878.t13 a_n2982_13878.t15 a_n2982_13878.t16 vdd.t273 sky130_fd_pr__pfet_01v8 ad=1.485 pd=9.33 as=1.485 ps=9.33 w=9 l=0.5
X216 diffpairibias.t9 diffpairibias.t8 gnd.t325 gnd.t324 sky130_fd_pr__nfet_01v8 ad=2.73 pd=14.78 as=2.73 ps=14.78 w=7 l=1
X217 gnd.t269 commonsourceibias.t75 CSoutput.t164 gnd.t214 sky130_fd_pr__nfet_01v8 ad=1.155 pd=7.33 as=1.155 ps=7.33 w=7 l=1
X218 a_n3827_n3924.t11 minus.t13 a_n2982_13878.t9 gnd.t1 sky130_fd_pr__nfet_01v8 ad=1.155 pd=7.33 as=1.155 ps=7.33 w=7 l=0.7
X219 gnd.t116 gnd.t114 gnd.t115 gnd.t71 sky130_fd_pr__nfet_01v8 ad=2.73 pd=14.78 as=0 ps=0 w=7 l=1
X220 vdd.t165 a_n9628_8799.t102 CSoutput.t57 vdd.t164 sky130_fd_pr__pfet_01v8 ad=3.12 pd=16.78 as=1.32 ps=8.33 w=8 l=0.5
X221 vdd.t166 a_n9628_8799.t103 CSoutput.t56 vdd.t125 sky130_fd_pr__pfet_01v8 ad=1.32 pd=8.33 as=1.32 ps=8.33 w=8 l=0.5
X222 output.t17 outputibias.t9 gnd.t32 gnd.t31 sky130_fd_pr__nfet_01v8 ad=2.34 pd=12.78 as=2.34 ps=12.78 w=6 l=2
X223 commonsourceibias.t11 commonsourceibias.t10 gnd.t268 gnd.t259 sky130_fd_pr__nfet_01v8 ad=1.155 pd=7.33 as=1.155 ps=7.33 w=7 l=1
X224 CSoutput.t55 a_n9628_8799.t104 vdd.t163 vdd.t162 sky130_fd_pr__pfet_01v8 ad=1.32 pd=8.33 as=1.32 ps=8.33 w=8 l=0.5
X225 a_n2982_8322.t25 a_n2982_13878.t84 a_n9628_8799.t2 vdd.t241 sky130_fd_pr__pfet_01v8 ad=1.485 pd=9.33 as=1.485 ps=9.33 w=9 l=0.5
X226 a_n2982_13878.t14 a_n2982_13878.t13 a_n2804_13878.t12 vdd.t272 sky130_fd_pr__pfet_01v8 ad=1.485 pd=9.33 as=1.485 ps=9.33 w=9 l=0.5
X227 CSoutput.t54 a_n9628_8799.t105 vdd.t161 vdd.t121 sky130_fd_pr__pfet_01v8 ad=1.32 pd=8.33 as=3.12 ps=16.78 w=8 l=0.5
X228 diffpairibias.t7 diffpairibias.t6 gnd.t311 gnd.t310 sky130_fd_pr__nfet_01v8 ad=2.73 pd=14.78 as=2.73 ps=14.78 w=7 l=1
X229 vdd.t160 a_n9628_8799.t106 CSoutput.t53 vdd.t159 sky130_fd_pr__pfet_01v8 ad=3.12 pd=16.78 as=1.32 ps=8.33 w=8 l=0.5
X230 a_n2804_13878.t11 a_n2982_13878.t57 a_n2982_13878.t58 vdd.t271 sky130_fd_pr__pfet_01v8 ad=1.485 pd=9.33 as=1.485 ps=9.33 w=9 l=0.5
X231 a_n2982_13878.t8 minus.t14 a_n3827_n3924.t9 gnd.t22 sky130_fd_pr__nfet_01v8 ad=1.155 pd=7.33 as=1.155 ps=7.33 w=7 l=0.7
X232 a_n2982_13878.t5 minus.t15 a_n3827_n3924.t6 gnd.t11 sky130_fd_pr__nfet_01v8 ad=1.155 pd=7.33 as=1.155 ps=7.33 w=7 l=0.7
X233 vdd.t270 a_n2982_13878.t85 a_n2982_8322.t9 vdd.t269 sky130_fd_pr__pfet_01v8 ad=1.485 pd=9.33 as=3.51 ps=18.78 w=9 l=0.5
X234 vdd.t297 CSoutput.t207 output.t4 gnd.t57 sky130_fd_pr__nfet_01v8 ad=0.825 pd=5.33 as=0.825 ps=5.33 w=5 l=1
X235 vdd.t158 a_n9628_8799.t107 CSoutput.t52 vdd.t157 sky130_fd_pr__pfet_01v8 ad=1.32 pd=8.33 as=1.32 ps=8.33 w=8 l=0.5
X236 CSoutput.t163 commonsourceibias.t76 gnd.t267 gnd.t198 sky130_fd_pr__nfet_01v8 ad=1.155 pd=7.33 as=1.155 ps=7.33 w=7 l=1
X237 a_n9628_8799.t28 plus.t13 a_n3827_n3924.t36 gnd.t2 sky130_fd_pr__nfet_01v8 ad=1.155 pd=7.33 as=1.155 ps=7.33 w=7 l=0.7
X238 gnd.t113 gnd.t111 gnd.t112 gnd.t97 sky130_fd_pr__nfet_01v8 ad=2.73 pd=14.78 as=0 ps=0 w=7 l=1
X239 commonsourceibias.t9 commonsourceibias.t8 gnd.t266 gnd.t234 sky130_fd_pr__nfet_01v8 ad=1.155 pd=7.33 as=1.155 ps=7.33 w=7 l=1
X240 a_n3827_n3924.t21 minus.t16 a_n2982_13878.t62 gnd.t27 sky130_fd_pr__nfet_01v8 ad=1.155 pd=7.33 as=1.155 ps=7.33 w=7 l=0.7
X241 CSoutput.t51 a_n9628_8799.t108 vdd.t81 vdd.t80 sky130_fd_pr__pfet_01v8 ad=1.32 pd=8.33 as=1.32 ps=8.33 w=8 l=0.5
X242 gnd.t110 gnd.t107 gnd.t109 gnd.t108 sky130_fd_pr__nfet_01v8 ad=2.73 pd=14.78 as=0 ps=0 w=7 l=1
X243 a_n2804_13878.t2 a_n2982_13878.t86 vdd.t268 vdd.t267 sky130_fd_pr__pfet_01v8 ad=3.51 pd=18.78 as=1.485 ps=9.33 w=9 l=0.5
X244 CSoutput.t162 commonsourceibias.t77 gnd.t265 gnd.t198 sky130_fd_pr__nfet_01v8 ad=1.155 pd=7.33 as=1.155 ps=7.33 w=7 l=1
X245 vdd.t156 a_n9628_8799.t109 CSoutput.t50 vdd.t155 sky130_fd_pr__pfet_01v8 ad=1.32 pd=8.33 as=1.32 ps=8.33 w=8 l=0.5
X246 gnd.t264 commonsourceibias.t78 CSoutput.t161 gnd.t247 sky130_fd_pr__nfet_01v8 ad=1.155 pd=7.33 as=1.155 ps=7.33 w=7 l=1
X247 CSoutput.t49 a_n9628_8799.t110 vdd.t154 vdd.t153 sky130_fd_pr__pfet_01v8 ad=1.32 pd=8.33 as=1.32 ps=8.33 w=8 l=0.5
X248 CSoutput.t48 a_n9628_8799.t111 vdd.t152 vdd.t137 sky130_fd_pr__pfet_01v8 ad=1.32 pd=8.33 as=1.32 ps=8.33 w=8 l=0.5