* NGSPICE file created from opamp253.ext - technology: sky130A

.subckt opamp253 gnd CSoutput output vdd plus minus commonsourceibias outputibias
+ diffpairibias
X0 gnd.t360 commonsourceibias.t24 commonsourceibias.t25 gnd.t282 sky130_fd_pr__nfet_01v8 ad=1.155 pd=7.33 as=1.155 ps=7.33 w=7 l=1
X1 CSoutput.t71 a_n6972_8799.t36 vdd.t140 vdd.t61 sky130_fd_pr__pfet_01v8 ad=1.32 pd=8.33 as=1.32 ps=8.33 w=8 l=0.5
X2 a_n2140_13878.t23 a_n2356_n452.t52 vdd.t28 vdd.t27 sky130_fd_pr__pfet_01v8 ad=1.485 pd=9.33 as=1.485 ps=9.33 w=9 l=0.5
X3 a_n2140_13878.t15 a_n2356_n452.t37 a_n2356_n452.t38 vdd.t23 sky130_fd_pr__pfet_01v8 ad=1.485 pd=9.33 as=1.485 ps=9.33 w=9 l=0.5
X4 CSoutput.t167 commonsourceibias.t64 gnd.t359 gnd.t253 sky130_fd_pr__nfet_01v8 ad=1.155 pd=7.33 as=2.73 ps=14.78 w=7 l=1
X5 vdd.t139 a_n6972_8799.t37 CSoutput.t70 vdd.t105 sky130_fd_pr__pfet_01v8 ad=1.32 pd=8.33 as=1.32 ps=8.33 w=8 l=0.5
X6 vdd.t226 vdd.t224 vdd.t225 vdd.t168 sky130_fd_pr__pfet_01v8 ad=3.12 pd=16.78 as=0 ps=0 w=8 l=0.5
X7 commonsourceibias.t23 commonsourceibias.t22 gnd.t358 gnd.t223 sky130_fd_pr__nfet_01v8 ad=1.155 pd=7.33 as=1.155 ps=7.33 w=7 l=1
X8 gnd.t357 commonsourceibias.t65 CSoutput.t166 gnd.t212 sky130_fd_pr__nfet_01v8 ad=1.155 pd=7.33 as=1.155 ps=7.33 w=7 l=1
X9 a_n6972_8799.t18 plus.t5 a_n3827_n3924.t24 gnd.t48 sky130_fd_pr__nfet_01v8 ad=1.155 pd=7.33 as=1.155 ps=7.33 w=7 l=0.9
X10 gnd.t356 commonsourceibias.t20 commonsourceibias.t21 gnd.t218 sky130_fd_pr__nfet_01v8 ad=1.155 pd=7.33 as=1.155 ps=7.33 w=7 l=1
X11 a_n3827_n3924.t25 diffpairibias.t20 gnd.t18 gnd.t17 sky130_fd_pr__nfet_01v8 ad=2.73 pd=14.78 as=2.73 ps=14.78 w=7 l=1
X12 a_n3827_n3924.t23 plus.t6 a_n6972_8799.t24 gnd.t36 sky130_fd_pr__nfet_01v8 ad=2.73 pd=14.78 as=1.155 ps=7.33 w=7 l=0.9
X13 CSoutput.t69 a_n6972_8799.t38 vdd.t138 vdd.t51 sky130_fd_pr__pfet_01v8 ad=1.32 pd=8.33 as=1.32 ps=8.33 w=8 l=0.5
X14 gnd.t355 commonsourceibias.t18 commonsourceibias.t19 gnd.t201 sky130_fd_pr__nfet_01v8 ad=1.155 pd=7.33 as=1.155 ps=7.33 w=7 l=1
X15 a_n2318_8322.t19 a_n2356_n452.t53 a_n6972_8799.t12 vdd.t29 sky130_fd_pr__pfet_01v8 ad=1.485 pd=9.33 as=1.485 ps=9.33 w=9 l=0.5
X16 commonsourceibias.t17 commonsourceibias.t16 gnd.t354 gnd.t242 sky130_fd_pr__nfet_01v8 ad=1.155 pd=7.33 as=1.155 ps=7.33 w=7 l=1
X17 gnd.t353 commonsourceibias.t66 CSoutput.t165 gnd.t275 sky130_fd_pr__nfet_01v8 ad=1.155 pd=7.33 as=1.155 ps=7.33 w=7 l=1
X18 CSoutput.t68 a_n6972_8799.t39 vdd.t132 vdd.t82 sky130_fd_pr__pfet_01v8 ad=1.32 pd=8.33 as=1.32 ps=8.33 w=8 l=0.5
X19 vdd.t137 a_n6972_8799.t40 CSoutput.t67 vdd.t94 sky130_fd_pr__pfet_01v8 ad=1.32 pd=8.33 as=1.32 ps=8.33 w=8 l=0.5
X20 gnd.t194 gnd.t192 gnd.t193 gnd.t112 sky130_fd_pr__nfet_01v8 ad=2.73 pd=14.78 as=0 ps=0 w=7 l=1
X21 a_n2356_n452.t0 minus.t5 a_n3827_n3924.t0 gnd.t0 sky130_fd_pr__nfet_01v8 ad=1.155 pd=7.33 as=1.155 ps=7.33 w=7 l=0.9
X22 gnd.t191 gnd.t188 gnd.t190 gnd.t189 sky130_fd_pr__nfet_01v8 ad=2.34 pd=12.78 as=0 ps=0 w=6 l=2
X23 a_n6972_8799.t0 plus.t7 a_n3827_n3924.t22 gnd.t5 sky130_fd_pr__nfet_01v8 ad=1.155 pd=7.33 as=1.155 ps=7.33 w=7 l=0.9
X24 a_n6972_8799.t8 a_n2356_n452.t54 a_n2318_8322.t18 vdd.t22 sky130_fd_pr__pfet_01v8 ad=1.485 pd=9.33 as=3.51 ps=18.78 w=9 l=0.5
X25 a_n2356_n452.t41 minus.t6 a_n3827_n3924.t37 gnd.t50 sky130_fd_pr__nfet_01v8 ad=1.155 pd=7.33 as=1.155 ps=7.33 w=7 l=0.9
X26 vdd.t133 a_n6972_8799.t41 CSoutput.t66 vdd.t113 sky130_fd_pr__pfet_01v8 ad=1.32 pd=8.33 as=1.32 ps=8.33 w=8 l=0.5
X27 CSoutput.t65 a_n6972_8799.t42 vdd.t136 vdd.t84 sky130_fd_pr__pfet_01v8 ad=1.32 pd=8.33 as=1.32 ps=8.33 w=8 l=0.5
X28 commonsourceibias.t15 commonsourceibias.t14 gnd.t352 gnd.t280 sky130_fd_pr__nfet_01v8 ad=1.155 pd=7.33 as=1.155 ps=7.33 w=7 l=1
X29 a_n6972_8799.t9 a_n2356_n452.t55 a_n2318_8322.t17 vdd.t0 sky130_fd_pr__pfet_01v8 ad=1.485 pd=9.33 as=3.51 ps=18.78 w=9 l=0.5
X30 gnd.t351 commonsourceibias.t67 CSoutput.t164 gnd.t203 sky130_fd_pr__nfet_01v8 ad=1.155 pd=7.33 as=1.155 ps=7.33 w=7 l=1
X31 CSoutput.t163 commonsourceibias.t68 gnd.t334 gnd.t231 sky130_fd_pr__nfet_01v8 ad=1.155 pd=7.33 as=1.155 ps=7.33 w=7 l=1
X32 vdd.t223 vdd.t221 vdd.t222 vdd.t152 sky130_fd_pr__pfet_01v8 ad=3.51 pd=18.78 as=0 ps=0 w=9 l=0.5
X33 gnd.t350 commonsourceibias.t34 commonsourceibias.t35 gnd.t275 sky130_fd_pr__nfet_01v8 ad=1.155 pd=7.33 as=1.155 ps=7.33 w=7 l=1
X34 CSoutput.t168 a_n2318_8322.t3 sky130_fd_pr__cap_mim_m3_1 l=12 w=12
X35 CSoutput.t162 commonsourceibias.t69 gnd.t349 gnd.t285 sky130_fd_pr__nfet_01v8 ad=1.155 pd=7.33 as=1.155 ps=7.33 w=7 l=1
X36 CSoutput.t64 a_n6972_8799.t43 vdd.t135 vdd.t61 sky130_fd_pr__pfet_01v8 ad=1.32 pd=8.33 as=1.32 ps=8.33 w=8 l=0.5
X37 a_n3827_n3924.t21 plus.t8 a_n6972_8799.t33 gnd.t65 sky130_fd_pr__nfet_01v8 ad=1.155 pd=7.33 as=1.155 ps=7.33 w=7 l=0.9
X38 a_n3827_n3924.t34 diffpairibias.t21 gnd.t45 gnd.t44 sky130_fd_pr__nfet_01v8 ad=2.73 pd=14.78 as=2.73 ps=14.78 w=7 l=1
X39 CSoutput.t63 a_n6972_8799.t44 vdd.t134 vdd.t76 sky130_fd_pr__pfet_01v8 ad=1.32 pd=8.33 as=3.12 ps=16.78 w=8 l=0.5
X40 commonsourceibias.t33 commonsourceibias.t32 gnd.t348 gnd.t205 sky130_fd_pr__nfet_01v8 ad=1.155 pd=7.33 as=1.155 ps=7.33 w=7 l=1
X41 a_n3827_n3924.t39 minus.t7 a_n2356_n452.t43 gnd.t58 sky130_fd_pr__nfet_01v8 ad=1.155 pd=7.33 as=1.155 ps=7.33 w=7 l=0.9
X42 vdd.t220 vdd.t218 vdd.t219 vdd.t168 sky130_fd_pr__pfet_01v8 ad=3.12 pd=16.78 as=0 ps=0 w=8 l=0.5
X43 CSoutput.t161 commonsourceibias.t70 gnd.t347 gnd.t285 sky130_fd_pr__nfet_01v8 ad=1.155 pd=7.33 as=1.155 ps=7.33 w=7 l=1
X44 CSoutput.t62 a_n6972_8799.t45 vdd.t131 vdd.t51 sky130_fd_pr__pfet_01v8 ad=1.32 pd=8.33 as=1.32 ps=8.33 w=8 l=0.5
X45 gnd.t346 commonsourceibias.t30 commonsourceibias.t31 gnd.t269 sky130_fd_pr__nfet_01v8 ad=1.155 pd=7.33 as=1.155 ps=7.33 w=7 l=1
X46 CSoutput.t160 commonsourceibias.t71 gnd.t345 gnd.t216 sky130_fd_pr__nfet_01v8 ad=1.155 pd=7.33 as=2.73 ps=14.78 w=7 l=1
X47 a_n2140_13878.t14 a_n2356_n452.t7 a_n2356_n452.t8 vdd.t12 sky130_fd_pr__pfet_01v8 ad=1.485 pd=9.33 as=1.485 ps=9.33 w=9 l=0.5
X48 output.t19 outputibias.t8 gnd.t53 gnd.t52 sky130_fd_pr__nfet_01v8 ad=2.34 pd=12.78 as=2.34 ps=12.78 w=6 l=2
X49 a_n2356_n452.t14 a_n2356_n452.t13 a_n2140_13878.t13 vdd.t7 sky130_fd_pr__pfet_01v8 ad=1.485 pd=9.33 as=1.485 ps=9.33 w=9 l=0.5
X50 CSoutput.t169 a_n2318_8322.t1 sky130_fd_pr__cap_mim_m3_1 l=12 w=12
X51 CSoutput.t61 a_n6972_8799.t46 vdd.t130 vdd.t82 sky130_fd_pr__pfet_01v8 ad=1.32 pd=8.33 as=1.32 ps=8.33 w=8 l=0.5
X52 vdd.t217 vdd.t215 vdd.t216 vdd.t198 sky130_fd_pr__pfet_01v8 ad=3.51 pd=18.78 as=0 ps=0 w=9 l=0.5
X53 a_n3827_n3924.t20 plus.t9 a_n6972_8799.t27 gnd.t59 sky130_fd_pr__nfet_01v8 ad=1.155 pd=7.33 as=1.155 ps=7.33 w=7 l=0.9
X54 vdd.t129 a_n6972_8799.t47 CSoutput.t60 vdd.t94 sky130_fd_pr__pfet_01v8 ad=1.32 pd=8.33 as=1.32 ps=8.33 w=8 l=0.5
X55 vdd.t146 CSoutput.t170 output.t15 gnd.t73 sky130_fd_pr__nfet_01v8 ad=0.825 pd=5.33 as=0.825 ps=5.33 w=5 l=1
X56 plus.t4 gnd.t185 gnd.t187 gnd.t186 sky130_fd_pr__nfet_01v8 ad=0.165 pd=1.33 as=0.165 ps=1.33 w=1 l=0.5
X57 diffpairibias.t19 diffpairibias.t18 gnd.t12 gnd.t11 sky130_fd_pr__nfet_01v8 ad=2.73 pd=14.78 as=2.73 ps=14.78 w=7 l=1
X58 CSoutput.t159 commonsourceibias.t72 gnd.t335 gnd.t251 sky130_fd_pr__nfet_01v8 ad=1.155 pd=7.33 as=1.155 ps=7.33 w=7 l=1
X59 a_n3827_n3924.t19 plus.t10 a_n6972_8799.t5 gnd.t22 sky130_fd_pr__nfet_01v8 ad=1.155 pd=7.33 as=1.155 ps=7.33 w=7 l=0.9
X60 gnd.t184 gnd.t182 gnd.t183 gnd.t126 sky130_fd_pr__nfet_01v8 ad=2.73 pd=14.78 as=0 ps=0 w=7 l=0.9
X61 CSoutput.t158 commonsourceibias.t73 gnd.t344 gnd.t294 sky130_fd_pr__nfet_01v8 ad=1.155 pd=7.33 as=1.155 ps=7.33 w=7 l=1
X62 CSoutput.t157 commonsourceibias.t74 gnd.t343 gnd.t266 sky130_fd_pr__nfet_01v8 ad=1.155 pd=7.33 as=1.155 ps=7.33 w=7 l=1
X63 a_n6972_8799.t2 a_n2356_n452.t56 a_n2318_8322.t16 vdd.t6 sky130_fd_pr__pfet_01v8 ad=1.485 pd=9.33 as=1.485 ps=9.33 w=9 l=0.5
X64 CSoutput.t59 a_n6972_8799.t48 vdd.t128 vdd.t47 sky130_fd_pr__pfet_01v8 ad=1.32 pd=8.33 as=1.32 ps=8.33 w=8 l=0.5
X65 commonsourceibias.t29 commonsourceibias.t28 gnd.t342 gnd.t253 sky130_fd_pr__nfet_01v8 ad=1.155 pd=7.33 as=2.73 ps=14.78 w=7 l=1
X66 gnd.t181 gnd.t179 gnd.t180 gnd.t76 sky130_fd_pr__nfet_01v8 ad=2.73 pd=14.78 as=0 ps=0 w=7 l=1
X67 vdd.t127 a_n6972_8799.t49 CSoutput.t58 vdd.t57 sky130_fd_pr__pfet_01v8 ad=1.32 pd=8.33 as=1.32 ps=8.33 w=8 l=0.5
X68 diffpairibias.t17 diffpairibias.t16 gnd.t72 gnd.t71 sky130_fd_pr__nfet_01v8 ad=2.73 pd=14.78 as=2.73 ps=14.78 w=7 l=1
X69 CSoutput.t57 a_n6972_8799.t50 vdd.t126 vdd.t66 sky130_fd_pr__pfet_01v8 ad=1.32 pd=8.33 as=3.12 ps=16.78 w=8 l=0.5
X70 gnd.t178 gnd.t176 gnd.t177 gnd.t76 sky130_fd_pr__nfet_01v8 ad=2.73 pd=14.78 as=0 ps=0 w=7 l=1
X71 vdd.t125 a_n6972_8799.t51 CSoutput.t56 vdd.t49 sky130_fd_pr__pfet_01v8 ad=1.32 pd=8.33 as=1.32 ps=8.33 w=8 l=0.5
X72 CSoutput.t156 commonsourceibias.t75 gnd.t341 gnd.t266 sky130_fd_pr__nfet_01v8 ad=1.155 pd=7.33 as=1.155 ps=7.33 w=7 l=1
X73 CSoutput.t55 a_n6972_8799.t52 vdd.t124 vdd.t115 sky130_fd_pr__pfet_01v8 ad=1.32 pd=8.33 as=1.32 ps=8.33 w=8 l=0.5
X74 CSoutput.t54 a_n6972_8799.t53 vdd.t123 vdd.t76 sky130_fd_pr__pfet_01v8 ad=1.32 pd=8.33 as=3.12 ps=16.78 w=8 l=0.5
X75 CSoutput.t53 a_n6972_8799.t54 vdd.t122 vdd.t115 sky130_fd_pr__pfet_01v8 ad=1.32 pd=8.33 as=1.32 ps=8.33 w=8 l=0.5
X76 a_n3827_n3924.t28 minus.t8 a_n2356_n452.t6 gnd.t28 sky130_fd_pr__nfet_01v8 ad=1.155 pd=7.33 as=1.155 ps=7.33 w=7 l=0.9
X77 a_n3827_n3924.t18 plus.t11 a_n6972_8799.t22 gnd.t14 sky130_fd_pr__nfet_01v8 ad=2.73 pd=14.78 as=1.155 ps=7.33 w=7 l=0.9
X78 gnd.t340 commonsourceibias.t76 CSoutput.t155 gnd.t247 sky130_fd_pr__nfet_01v8 ad=1.155 pd=7.33 as=1.155 ps=7.33 w=7 l=1
X79 gnd.t175 gnd.t172 gnd.t174 gnd.t173 sky130_fd_pr__nfet_01v8 ad=2.34 pd=12.78 as=0 ps=0 w=6 l=2
X80 CSoutput.t154 commonsourceibias.t77 gnd.t339 gnd.t225 sky130_fd_pr__nfet_01v8 ad=1.155 pd=7.33 as=1.155 ps=7.33 w=7 l=1
X81 gnd.t171 gnd.t169 gnd.t170 gnd.t88 sky130_fd_pr__nfet_01v8 ad=2.73 pd=14.78 as=0 ps=0 w=7 l=0.9
X82 a_n6972_8799.t10 plus.t12 a_n3827_n3924.t17 gnd.t33 sky130_fd_pr__nfet_01v8 ad=1.155 pd=7.33 as=1.155 ps=7.33 w=7 l=0.9
X83 gnd.t338 commonsourceibias.t78 CSoutput.t153 gnd.t227 sky130_fd_pr__nfet_01v8 ad=2.73 pd=14.78 as=1.155 ps=7.33 w=7 l=1
X84 gnd.t168 gnd.t166 minus.t4 gnd.t167 sky130_fd_pr__nfet_01v8 ad=0.165 pd=1.33 as=0.39 ps=2.78 w=1 l=0.5
X85 gnd.t165 gnd.t163 gnd.t164 gnd.t112 sky130_fd_pr__nfet_01v8 ad=2.73 pd=14.78 as=0 ps=0 w=7 l=1
X86 a_n3827_n3924.t35 diffpairibias.t22 gnd.t47 gnd.t46 sky130_fd_pr__nfet_01v8 ad=2.73 pd=14.78 as=2.73 ps=14.78 w=7 l=1
X87 CSoutput.t152 commonsourceibias.t79 gnd.t337 gnd.t210 sky130_fd_pr__nfet_01v8 ad=1.155 pd=7.33 as=1.155 ps=7.33 w=7 l=1
X88 a_n2356_n452.t32 a_n2356_n452.t31 a_n2140_13878.t12 vdd.t29 sky130_fd_pr__pfet_01v8 ad=1.485 pd=9.33 as=1.485 ps=9.33 w=9 l=0.5
X89 vdd.t121 a_n6972_8799.t55 CSoutput.t52 vdd.t86 sky130_fd_pr__pfet_01v8 ad=1.32 pd=8.33 as=1.32 ps=8.33 w=8 l=0.5
X90 a_n3827_n3924.t16 plus.t13 a_n6972_8799.t35 gnd.t21 sky130_fd_pr__nfet_01v8 ad=1.155 pd=7.33 as=1.155 ps=7.33 w=7 l=0.9
X91 a_n6972_8799.t3 a_n2356_n452.t57 a_n2318_8322.t15 vdd.t10 sky130_fd_pr__pfet_01v8 ad=1.485 pd=9.33 as=1.485 ps=9.33 w=9 l=0.5
X92 vdd.t120 a_n6972_8799.t56 CSoutput.t51 vdd.t113 sky130_fd_pr__pfet_01v8 ad=1.32 pd=8.33 as=1.32 ps=8.33 w=8 l=0.5
X93 a_n2356_n452.t26 a_n2356_n452.t25 a_n2140_13878.t11 vdd.t13 sky130_fd_pr__pfet_01v8 ad=3.51 pd=18.78 as=1.485 ps=9.33 w=9 l=0.5
X94 outputibias.t7 outputibias.t6 gnd.t369 gnd.t368 sky130_fd_pr__nfet_01v8 ad=2.34 pd=12.78 as=2.34 ps=12.78 w=6 l=2
X95 commonsourceibias.t27 commonsourceibias.t26 gnd.t336 gnd.t231 sky130_fd_pr__nfet_01v8 ad=1.155 pd=7.33 as=1.155 ps=7.33 w=7 l=1
X96 gnd.t333 commonsourceibias.t80 CSoutput.t151 gnd.t245 sky130_fd_pr__nfet_01v8 ad=1.155 pd=7.33 as=1.155 ps=7.33 w=7 l=1
X97 gnd.t162 gnd.t160 gnd.t161 gnd.t80 sky130_fd_pr__nfet_01v8 ad=2.73 pd=14.78 as=0 ps=0 w=7 l=1
X98 CSoutput.t150 commonsourceibias.t81 gnd.t332 gnd.t223 sky130_fd_pr__nfet_01v8 ad=1.155 pd=7.33 as=1.155 ps=7.33 w=7 l=1
X99 gnd.t331 commonsourceibias.t8 commonsourceibias.t9 gnd.t229 sky130_fd_pr__nfet_01v8 ad=1.155 pd=7.33 as=1.155 ps=7.33 w=7 l=1
X100 vdd.t119 a_n6972_8799.t57 CSoutput.t50 vdd.t63 sky130_fd_pr__pfet_01v8 ad=1.32 pd=8.33 as=1.32 ps=8.33 w=8 l=0.5
X101 CSoutput.t149 commonsourceibias.t82 gnd.t330 gnd.t285 sky130_fd_pr__nfet_01v8 ad=1.155 pd=7.33 as=1.155 ps=7.33 w=7 l=1
X102 CSoutput.t49 a_n6972_8799.t58 vdd.t118 vdd.t89 sky130_fd_pr__pfet_01v8 ad=1.32 pd=8.33 as=1.32 ps=8.33 w=8 l=0.5
X103 diffpairibias.t15 diffpairibias.t14 gnd.t70 gnd.t69 sky130_fd_pr__nfet_01v8 ad=2.73 pd=14.78 as=2.73 ps=14.78 w=7 l=1
X104 vdd.t214 vdd.t212 vdd.t213 vdd.t202 sky130_fd_pr__pfet_01v8 ad=3.51 pd=18.78 as=0 ps=0 w=9 l=0.5
X105 vdd.t211 vdd.t209 vdd.t210 vdd.t164 sky130_fd_pr__pfet_01v8 ad=3.12 pd=16.78 as=0 ps=0 w=8 l=0.5
X106 CSoutput.t48 a_n6972_8799.t59 vdd.t117 vdd.t66 sky130_fd_pr__pfet_01v8 ad=1.32 pd=8.33 as=3.12 ps=16.78 w=8 l=0.5
X107 vdd.t208 vdd.t205 vdd.t207 vdd.t206 sky130_fd_pr__pfet_01v8 ad=3.51 pd=18.78 as=0 ps=0 w=9 l=0.5
X108 gnd.t329 commonsourceibias.t83 CSoutput.t148 gnd.t235 sky130_fd_pr__nfet_01v8 ad=2.73 pd=14.78 as=1.155 ps=7.33 w=7 l=1
X109 vdd.t42 a_n2356_n452.t58 a_n2318_8322.t27 vdd.t41 sky130_fd_pr__pfet_01v8 ad=1.485 pd=9.33 as=1.485 ps=9.33 w=9 l=0.5
X110 gnd.t328 commonsourceibias.t6 commonsourceibias.t7 gnd.t220 sky130_fd_pr__nfet_01v8 ad=1.155 pd=7.33 as=1.155 ps=7.33 w=7 l=1
X111 a_n2356_n452.t10 a_n2356_n452.t9 a_n2140_13878.t10 vdd.t21 sky130_fd_pr__pfet_01v8 ad=3.51 pd=18.78 as=1.485 ps=9.33 w=9 l=0.5
X112 CSoutput.t147 commonsourceibias.t84 gnd.t327 gnd.t238 sky130_fd_pr__nfet_01v8 ad=1.155 pd=7.33 as=1.155 ps=7.33 w=7 l=1
X113 output.t14 CSoutput.t171 vdd.t147 gnd.t74 sky130_fd_pr__nfet_01v8 ad=0.825 pd=5.33 as=0.825 ps=5.33 w=5 l=1
X114 CSoutput.t146 commonsourceibias.t85 gnd.t324 gnd.t280 sky130_fd_pr__nfet_01v8 ad=1.155 pd=7.33 as=1.155 ps=7.33 w=7 l=1
X115 a_n2318_8322.t26 a_n2356_n452.t59 vdd.t44 vdd.t43 sky130_fd_pr__pfet_01v8 ad=1.485 pd=9.33 as=1.485 ps=9.33 w=9 l=0.5
X116 a_n3827_n3924.t29 diffpairibias.t23 gnd.t30 gnd.t29 sky130_fd_pr__nfet_01v8 ad=2.73 pd=14.78 as=2.73 ps=14.78 w=7 l=1
X117 CSoutput.t47 a_n6972_8799.t60 vdd.t116 vdd.t115 sky130_fd_pr__pfet_01v8 ad=1.32 pd=8.33 as=1.32 ps=8.33 w=8 l=0.5
X118 gnd.t326 commonsourceibias.t86 CSoutput.t145 gnd.t282 sky130_fd_pr__nfet_01v8 ad=1.155 pd=7.33 as=1.155 ps=7.33 w=7 l=1
X119 commonsourceibias.t5 commonsourceibias.t4 gnd.t325 gnd.t216 sky130_fd_pr__nfet_01v8 ad=1.155 pd=7.33 as=2.73 ps=14.78 w=7 l=1
X120 vdd.t2 a_n2356_n452.t60 a_n2140_13878.t22 vdd.t1 sky130_fd_pr__pfet_01v8 ad=1.485 pd=9.33 as=1.485 ps=9.33 w=9 l=0.5
X121 gnd.t323 commonsourceibias.t87 CSoutput.t144 gnd.t261 sky130_fd_pr__nfet_01v8 ad=1.155 pd=7.33 as=1.155 ps=7.33 w=7 l=1
X122 gnd.t322 commonsourceibias.t2 commonsourceibias.t3 gnd.t203 sky130_fd_pr__nfet_01v8 ad=1.155 pd=7.33 as=1.155 ps=7.33 w=7 l=1
X123 output.t13 CSoutput.t172 vdd.t148 gnd.t195 sky130_fd_pr__nfet_01v8 ad=0.825 pd=5.33 as=0.825 ps=5.33 w=5 l=1
X124 vdd.t204 vdd.t201 vdd.t203 vdd.t202 sky130_fd_pr__pfet_01v8 ad=3.51 pd=18.78 as=0 ps=0 w=9 l=0.5
X125 CSoutput.t143 commonsourceibias.t88 gnd.t321 gnd.t251 sky130_fd_pr__nfet_01v8 ad=1.155 pd=7.33 as=1.155 ps=7.33 w=7 l=1
X126 gnd.t320 commonsourceibias.t89 CSoutput.t142 gnd.t212 sky130_fd_pr__nfet_01v8 ad=1.155 pd=7.33 as=1.155 ps=7.33 w=7 l=1
X127 plus.t3 gnd.t157 gnd.t159 gnd.t158 sky130_fd_pr__nfet_01v8 ad=0.165 pd=1.33 as=0.165 ps=1.33 w=1 l=0.5
X128 vdd.t114 a_n6972_8799.t61 CSoutput.t46 vdd.t113 sky130_fd_pr__pfet_01v8 ad=1.32 pd=8.33 as=1.32 ps=8.33 w=8 l=0.5
X129 CSoutput.t141 commonsourceibias.t90 gnd.t319 gnd.t225 sky130_fd_pr__nfet_01v8 ad=1.155 pd=7.33 as=1.155 ps=7.33 w=7 l=1
X130 gnd.t156 gnd.t154 minus.t3 gnd.t155 sky130_fd_pr__nfet_01v8 ad=0.165 pd=1.33 as=0.165 ps=1.33 w=1 l=0.5
X131 a_n6972_8799.t26 plus.t14 a_n3827_n3924.t15 gnd.t361 sky130_fd_pr__nfet_01v8 ad=1.155 pd=7.33 as=2.73 ps=14.78 w=7 l=0.9
X132 commonsourceibias.t55 commonsourceibias.t54 gnd.t318 gnd.t208 sky130_fd_pr__nfet_01v8 ad=1.155 pd=7.33 as=1.155 ps=7.33 w=7 l=1
X133 a_n2356_n452.t48 minus.t9 a_n3827_n3924.t46 gnd.t41 sky130_fd_pr__nfet_01v8 ad=1.155 pd=7.33 as=2.73 ps=14.78 w=7 l=0.9
X134 vdd.t200 vdd.t197 vdd.t199 vdd.t198 sky130_fd_pr__pfet_01v8 ad=3.51 pd=18.78 as=0 ps=0 w=9 l=0.5
X135 a_n2318_8322.t25 a_n2356_n452.t61 vdd.t4 vdd.t3 sky130_fd_pr__pfet_01v8 ad=3.51 pd=18.78 as=1.485 ps=9.33 w=9 l=0.5
X136 gnd.t317 commonsourceibias.t91 CSoutput.t140 gnd.t233 sky130_fd_pr__nfet_01v8 ad=1.155 pd=7.33 as=1.155 ps=7.33 w=7 l=1
X137 a_n6972_8799.t29 a_n2356_n452.t62 a_n2318_8322.t14 vdd.t34 sky130_fd_pr__pfet_01v8 ad=1.485 pd=9.33 as=1.485 ps=9.33 w=9 l=0.5
X138 a_n6972_8799.t23 plus.t15 a_n3827_n3924.t14 gnd.t13 sky130_fd_pr__nfet_01v8 ad=1.155 pd=7.33 as=1.155 ps=7.33 w=7 l=0.9
X139 gnd.t153 gnd.t151 gnd.t152 gnd.t98 sky130_fd_pr__nfet_01v8 ad=2.73 pd=14.78 as=0 ps=0 w=7 l=1
X140 diffpairibias.t13 diffpairibias.t12 gnd.t55 gnd.t54 sky130_fd_pr__nfet_01v8 ad=2.73 pd=14.78 as=2.73 ps=14.78 w=7 l=1
X141 a_n2356_n452.t28 a_n2356_n452.t27 a_n2140_13878.t9 vdd.t11 sky130_fd_pr__pfet_01v8 ad=1.485 pd=9.33 as=1.485 ps=9.33 w=9 l=0.5
X142 vdd.t112 a_n6972_8799.t62 CSoutput.t45 vdd.t63 sky130_fd_pr__pfet_01v8 ad=1.32 pd=8.33 as=1.32 ps=8.33 w=8 l=0.5
X143 a_n6972_8799.t30 a_n2356_n452.t63 a_n2318_8322.t13 vdd.t23 sky130_fd_pr__pfet_01v8 ad=1.485 pd=9.33 as=1.485 ps=9.33 w=9 l=0.5
X144 CSoutput.t44 a_n6972_8799.t63 vdd.t111 vdd.t89 sky130_fd_pr__pfet_01v8 ad=1.32 pd=8.33 as=1.32 ps=8.33 w=8 l=0.5
X145 gnd.t316 commonsourceibias.t52 commonsourceibias.t53 gnd.t212 sky130_fd_pr__nfet_01v8 ad=1.155 pd=7.33 as=1.155 ps=7.33 w=7 l=1
X146 a_n2140_13878.t8 a_n2356_n452.t23 a_n2356_n452.t24 vdd.t10 sky130_fd_pr__pfet_01v8 ad=1.485 pd=9.33 as=1.485 ps=9.33 w=9 l=0.5
X147 vdd.t196 vdd.t194 vdd.t195 vdd.t164 sky130_fd_pr__pfet_01v8 ad=3.12 pd=16.78 as=0 ps=0 w=8 l=0.5
X148 gnd.t315 commonsourceibias.t92 CSoutput.t139 gnd.t240 sky130_fd_pr__nfet_01v8 ad=1.155 pd=7.33 as=1.155 ps=7.33 w=7 l=1
X149 output.t12 CSoutput.t173 vdd.t149 gnd.t196 sky130_fd_pr__nfet_01v8 ad=0.825 pd=5.33 as=0.825 ps=5.33 w=5 l=1
X150 gnd.t314 commonsourceibias.t93 CSoutput.t138 gnd.t220 sky130_fd_pr__nfet_01v8 ad=1.155 pd=7.33 as=1.155 ps=7.33 w=7 l=1
X151 gnd.t150 gnd.t148 minus.t2 gnd.t149 sky130_fd_pr__nfet_01v8 ad=0.39 pd=2.78 as=0.165 ps=1.33 w=1 l=0.5
X152 CSoutput.t43 a_n6972_8799.t64 vdd.t110 vdd.t47 sky130_fd_pr__pfet_01v8 ad=1.32 pd=8.33 as=1.32 ps=8.33 w=8 l=0.5
X153 vdd.t233 a_n2356_n452.t64 a_n2318_8322.t24 vdd.t232 sky130_fd_pr__pfet_01v8 ad=1.485 pd=9.33 as=3.51 ps=18.78 w=9 l=0.5
X154 a_n2140_13878.t7 a_n2356_n452.t17 a_n2356_n452.t18 vdd.t22 sky130_fd_pr__pfet_01v8 ad=1.485 pd=9.33 as=3.51 ps=18.78 w=9 l=0.5
X155 gnd.t147 gnd.t145 gnd.t146 gnd.t98 sky130_fd_pr__nfet_01v8 ad=2.73 pd=14.78 as=0 ps=0 w=7 l=1
X156 vdd.t109 a_n6972_8799.t65 CSoutput.t42 vdd.t105 sky130_fd_pr__pfet_01v8 ad=1.32 pd=8.33 as=1.32 ps=8.33 w=8 l=0.5
X157 output.t18 outputibias.t9 gnd.t363 gnd.t362 sky130_fd_pr__nfet_01v8 ad=2.34 pd=12.78 as=2.34 ps=12.78 w=6 l=2
X158 a_n2356_n452.t40 minus.t10 a_n3827_n3924.t36 gnd.t48 sky130_fd_pr__nfet_01v8 ad=1.155 pd=7.33 as=1.155 ps=7.33 w=7 l=0.9
X159 a_n3827_n3924.t13 plus.t16 a_n6972_8799.t17 gnd.t49 sky130_fd_pr__nfet_01v8 ad=1.155 pd=7.33 as=1.155 ps=7.33 w=7 l=0.9
X160 a_n2356_n452.t36 a_n2356_n452.t35 a_n2140_13878.t6 vdd.t30 sky130_fd_pr__pfet_01v8 ad=1.485 pd=9.33 as=1.485 ps=9.33 w=9 l=0.5
X161 gnd.t144 gnd.t141 gnd.t143 gnd.t142 sky130_fd_pr__nfet_01v8 ad=1.95 pd=10.78 as=0 ps=0 w=5 l=1
X162 gnd.t140 gnd.t138 gnd.t139 gnd.t112 sky130_fd_pr__nfet_01v8 ad=2.73 pd=14.78 as=0 ps=0 w=7 l=1
X163 outputibias.t5 outputibias.t4 gnd.t365 gnd.t364 sky130_fd_pr__nfet_01v8 ad=2.34 pd=12.78 as=2.34 ps=12.78 w=6 l=2
X164 vdd.t150 CSoutput.t174 output.t11 gnd.t197 sky130_fd_pr__nfet_01v8 ad=0.825 pd=5.33 as=0.825 ps=5.33 w=5 l=1
X165 CSoutput.t137 commonsourceibias.t94 gnd.t313 gnd.t210 sky130_fd_pr__nfet_01v8 ad=1.155 pd=7.33 as=1.155 ps=7.33 w=7 l=1
X166 gnd.t312 commonsourceibias.t95 CSoutput.t136 gnd.t247 sky130_fd_pr__nfet_01v8 ad=1.155 pd=7.33 as=1.155 ps=7.33 w=7 l=1
X167 gnd.t311 commonsourceibias.t96 CSoutput.t135 gnd.t245 sky130_fd_pr__nfet_01v8 ad=1.155 pd=7.33 as=1.155 ps=7.33 w=7 l=1
X168 a_n3827_n3924.t43 diffpairibias.t24 gnd.t68 gnd.t67 sky130_fd_pr__nfet_01v8 ad=2.73 pd=14.78 as=2.73 ps=14.78 w=7 l=1
X169 a_n3827_n3924.t33 diffpairibias.t25 gnd.t40 gnd.t39 sky130_fd_pr__nfet_01v8 ad=2.73 pd=14.78 as=2.73 ps=14.78 w=7 l=1
X170 outputibias.t3 outputibias.t2 gnd.t371 gnd.t370 sky130_fd_pr__nfet_01v8 ad=2.34 pd=12.78 as=2.34 ps=12.78 w=6 l=2
X171 a_n6972_8799.t20 plus.t17 a_n3827_n3924.t12 gnd.t51 sky130_fd_pr__nfet_01v8 ad=1.155 pd=7.33 as=1.155 ps=7.33 w=7 l=0.9
X172 vdd.t108 a_n6972_8799.t66 CSoutput.t41 vdd.t74 sky130_fd_pr__pfet_01v8 ad=3.12 pd=16.78 as=1.32 ps=8.33 w=8 l=0.5
X173 gnd.t137 gnd.t135 gnd.t136 gnd.t80 sky130_fd_pr__nfet_01v8 ad=2.73 pd=14.78 as=0 ps=0 w=7 l=1
X174 a_n6972_8799.t31 plus.t18 a_n3827_n3924.t11 gnd.t50 sky130_fd_pr__nfet_01v8 ad=1.155 pd=7.33 as=1.155 ps=7.33 w=7 l=0.9
X175 gnd.t134 gnd.t132 gnd.t133 gnd.t80 sky130_fd_pr__nfet_01v8 ad=2.73 pd=14.78 as=0 ps=0 w=7 l=1
X176 CSoutput.t40 a_n6972_8799.t67 vdd.t62 vdd.t61 sky130_fd_pr__pfet_01v8 ad=1.32 pd=8.33 as=1.32 ps=8.33 w=8 l=0.5
X177 vdd.t18 CSoutput.t175 output.t10 gnd.t25 sky130_fd_pr__nfet_01v8 ad=0.825 pd=5.33 as=0.825 ps=5.33 w=5 l=1
X178 CSoutput.t39 a_n6972_8799.t68 vdd.t107 vdd.t98 sky130_fd_pr__pfet_01v8 ad=1.32 pd=8.33 as=1.32 ps=8.33 w=8 l=0.5
X179 CSoutput.t134 commonsourceibias.t97 gnd.t310 gnd.t294 sky130_fd_pr__nfet_01v8 ad=1.155 pd=7.33 as=1.155 ps=7.33 w=7 l=1
X180 output.t9 CSoutput.t176 vdd.t19 gnd.t26 sky130_fd_pr__nfet_01v8 ad=0.825 pd=5.33 as=0.825 ps=5.33 w=5 l=1
X181 gnd.t131 gnd.t129 gnd.t130 gnd.t76 sky130_fd_pr__nfet_01v8 ad=2.73 pd=14.78 as=0 ps=0 w=7 l=1
X182 gnd.t309 commonsourceibias.t98 CSoutput.t133 gnd.t261 sky130_fd_pr__nfet_01v8 ad=1.155 pd=7.33 as=1.155 ps=7.33 w=7 l=1
X183 diffpairibias.t11 diffpairibias.t10 gnd.t367 gnd.t366 sky130_fd_pr__nfet_01v8 ad=2.73 pd=14.78 as=2.73 ps=14.78 w=7 l=1
X184 a_n2140_13878.t21 a_n2356_n452.t65 vdd.t235 vdd.t234 sky130_fd_pr__pfet_01v8 ad=1.485 pd=9.33 as=1.485 ps=9.33 w=9 l=0.5
X185 a_n2356_n452.t47 minus.t11 a_n3827_n3924.t45 gnd.t66 sky130_fd_pr__nfet_01v8 ad=1.155 pd=7.33 as=1.155 ps=7.33 w=7 l=0.9
X186 vdd.t142 a_n2356_n452.t66 a_n2140_13878.t20 vdd.t141 sky130_fd_pr__pfet_01v8 ad=1.485 pd=9.33 as=1.485 ps=9.33 w=9 l=0.5
X187 CSoutput.t38 a_n6972_8799.t69 vdd.t48 vdd.t47 sky130_fd_pr__pfet_01v8 ad=1.32 pd=8.33 as=1.32 ps=8.33 w=8 l=0.5
X188 gnd.t308 commonsourceibias.t99 CSoutput.t132 gnd.t275 sky130_fd_pr__nfet_01v8 ad=1.155 pd=7.33 as=1.155 ps=7.33 w=7 l=1
X189 CSoutput.t131 commonsourceibias.t100 gnd.t307 gnd.t216 sky130_fd_pr__nfet_01v8 ad=1.155 pd=7.33 as=2.73 ps=14.78 w=7 l=1
X190 a_n3827_n3924.t10 plus.t19 a_n6972_8799.t32 gnd.t58 sky130_fd_pr__nfet_01v8 ad=1.155 pd=7.33 as=1.155 ps=7.33 w=7 l=0.9
X191 vdd.t106 a_n6972_8799.t70 CSoutput.t37 vdd.t105 sky130_fd_pr__pfet_01v8 ad=1.32 pd=8.33 as=1.32 ps=8.33 w=8 l=0.5
X192 output.t8 CSoutput.t177 vdd.t20 gnd.t27 sky130_fd_pr__nfet_01v8 ad=0.825 pd=5.33 as=0.825 ps=5.33 w=5 l=1
X193 a_n2140_13878.t5 a_n2356_n452.t11 a_n2356_n452.t12 vdd.t6 sky130_fd_pr__pfet_01v8 ad=1.485 pd=9.33 as=1.485 ps=9.33 w=9 l=0.5
X194 diffpairibias.t9 diffpairibias.t8 gnd.t10 gnd.t9 sky130_fd_pr__nfet_01v8 ad=2.73 pd=14.78 as=2.73 ps=14.78 w=7 l=1
X195 gnd.t306 commonsourceibias.t101 CSoutput.t130 gnd.t240 sky130_fd_pr__nfet_01v8 ad=1.155 pd=7.33 as=1.155 ps=7.33 w=7 l=1
X196 commonsourceibias.t51 commonsourceibias.t50 gnd.t305 gnd.t294 sky130_fd_pr__nfet_01v8 ad=1.155 pd=7.33 as=1.155 ps=7.33 w=7 l=1
X197 a_n3827_n3924.t2 minus.t12 a_n2356_n452.t2 gnd.t6 sky130_fd_pr__nfet_01v8 ad=1.155 pd=7.33 as=1.155 ps=7.33 w=7 l=0.9
X198 a_n2318_8322.t12 a_n2356_n452.t67 a_n6972_8799.t21 vdd.t31 sky130_fd_pr__pfet_01v8 ad=1.485 pd=9.33 as=1.485 ps=9.33 w=9 l=0.5
X199 CSoutput.t36 a_n6972_8799.t71 vdd.t104 vdd.t71 sky130_fd_pr__pfet_01v8 ad=1.32 pd=8.33 as=1.32 ps=8.33 w=8 l=0.5
X200 outputibias.t1 outputibias.t0 gnd.t35 gnd.t34 sky130_fd_pr__nfet_01v8 ad=2.34 pd=12.78 as=2.34 ps=12.78 w=6 l=2
X201 diffpairibias.t7 diffpairibias.t6 gnd.t43 gnd.t42 sky130_fd_pr__nfet_01v8 ad=2.73 pd=14.78 as=2.73 ps=14.78 w=7 l=1
X202 vdd.t95 a_n6972_8799.t72 CSoutput.t35 vdd.t94 sky130_fd_pr__pfet_01v8 ad=1.32 pd=8.33 as=1.32 ps=8.33 w=8 l=0.5
X203 vdd.t38 a_n2356_n452.t68 a_n2318_8322.t23 vdd.t37 sky130_fd_pr__pfet_01v8 ad=1.485 pd=9.33 as=3.51 ps=18.78 w=9 l=0.5
X204 vdd.t103 a_n6972_8799.t73 CSoutput.t34 vdd.t74 sky130_fd_pr__pfet_01v8 ad=3.12 pd=16.78 as=1.32 ps=8.33 w=8 l=0.5
X205 output.t17 outputibias.t10 gnd.t16 gnd.t15 sky130_fd_pr__nfet_01v8 ad=2.34 pd=12.78 as=2.34 ps=12.78 w=6 l=2
X206 a_n3827_n3924.t48 minus.t13 a_n2356_n452.t50 gnd.t22 sky130_fd_pr__nfet_01v8 ad=1.155 pd=7.33 as=1.155 ps=7.33 w=7 l=0.9
X207 gnd.t128 gnd.t125 gnd.t127 gnd.t126 sky130_fd_pr__nfet_01v8 ad=2.73 pd=14.78 as=0 ps=0 w=7 l=0.9
X208 CSoutput.t129 commonsourceibias.t102 gnd.t304 gnd.t214 sky130_fd_pr__nfet_01v8 ad=1.155 pd=7.33 as=1.155 ps=7.33 w=7 l=1
X209 CSoutput.t178 a_n2318_8322.t3 sky130_fd_pr__cap_mim_m3_1 l=12 w=12
X210 gnd.t124 gnd.t122 plus.t2 gnd.t123 sky130_fd_pr__nfet_01v8 ad=0.165 pd=1.33 as=0.165 ps=1.33 w=1 l=0.5
X211 commonsourceibias.t49 commonsourceibias.t48 gnd.t303 gnd.t266 sky130_fd_pr__nfet_01v8 ad=1.155 pd=7.33 as=1.155 ps=7.33 w=7 l=1
X212 a_n3827_n3924.t31 minus.t14 a_n2356_n452.t39 gnd.t36 sky130_fd_pr__nfet_01v8 ad=2.73 pd=14.78 as=1.155 ps=7.33 w=7 l=0.9
X213 minus.t1 gnd.t119 gnd.t121 gnd.t120 sky130_fd_pr__nfet_01v8 ad=0.165 pd=1.33 as=0.165 ps=1.33 w=1 l=0.5
X214 gnd.t118 gnd.t115 gnd.t117 gnd.t116 sky130_fd_pr__nfet_01v8 ad=2.73 pd=14.78 as=0 ps=0 w=7 l=1
X215 a_n2140_13878.t19 a_n2356_n452.t69 vdd.t40 vdd.t39 sky130_fd_pr__pfet_01v8 ad=3.51 pd=18.78 as=1.485 ps=9.33 w=9 l=0.5
X216 vdd.t145 CSoutput.t179 output.t7 gnd.t62 sky130_fd_pr__nfet_01v8 ad=0.825 pd=5.33 as=0.825 ps=5.33 w=5 l=1
X217 CSoutput.t128 commonsourceibias.t103 gnd.t302 gnd.t214 sky130_fd_pr__nfet_01v8 ad=1.155 pd=7.33 as=1.155 ps=7.33 w=7 l=1
X218 vdd.t102 a_n6972_8799.t74 CSoutput.t33 vdd.t86 sky130_fd_pr__pfet_01v8 ad=1.32 pd=8.33 as=1.32 ps=8.33 w=8 l=0.5
X219 gnd.t301 commonsourceibias.t104 CSoutput.t127 gnd.t282 sky130_fd_pr__nfet_01v8 ad=1.155 pd=7.33 as=1.155 ps=7.33 w=7 l=1
X220 CSoutput.t180 a_n2318_8322.t2 sky130_fd_pr__cap_mim_m3_1 l=12 w=12
X221 CSoutput.t32 a_n6972_8799.t75 vdd.t101 vdd.t98 sky130_fd_pr__pfet_01v8 ad=1.32 pd=8.33 as=1.32 ps=8.33 w=8 l=0.5
X222 CSoutput.t31 a_n6972_8799.t76 vdd.t100 vdd.t84 sky130_fd_pr__pfet_01v8 ad=1.32 pd=8.33 as=1.32 ps=8.33 w=8 l=0.5
X223 gnd.t300 commonsourceibias.t46 commonsourceibias.t47 gnd.t227 sky130_fd_pr__nfet_01v8 ad=2.73 pd=14.78 as=1.155 ps=7.33 w=7 l=1
X224 gnd.t299 commonsourceibias.t105 CSoutput.t126 gnd.t247 sky130_fd_pr__nfet_01v8 ad=1.155 pd=7.33 as=1.155 ps=7.33 w=7 l=1
X225 CSoutput.t125 commonsourceibias.t106 gnd.t298 gnd.t223 sky130_fd_pr__nfet_01v8 ad=1.155 pd=7.33 as=1.155 ps=7.33 w=7 l=1
X226 gnd.t114 gnd.t111 gnd.t113 gnd.t112 sky130_fd_pr__nfet_01v8 ad=2.73 pd=14.78 as=0 ps=0 w=7 l=1
X227 CSoutput.t124 commonsourceibias.t107 gnd.t297 gnd.t280 sky130_fd_pr__nfet_01v8 ad=1.155 pd=7.33 as=1.155 ps=7.33 w=7 l=1
X228 gnd.t296 commonsourceibias.t108 CSoutput.t123 gnd.t220 sky130_fd_pr__nfet_01v8 ad=1.155 pd=7.33 as=1.155 ps=7.33 w=7 l=1
X229 CSoutput.t122 commonsourceibias.t109 gnd.t295 gnd.t294 sky130_fd_pr__nfet_01v8 ad=1.155 pd=7.33 as=1.155 ps=7.33 w=7 l=1
X230 a_n3827_n3924.t30 diffpairibias.t26 gnd.t32 gnd.t31 sky130_fd_pr__nfet_01v8 ad=2.73 pd=14.78 as=2.73 ps=14.78 w=7 l=1
X231 gnd.t293 commonsourceibias.t110 CSoutput.t121 gnd.t218 sky130_fd_pr__nfet_01v8 ad=1.155 pd=7.33 as=1.155 ps=7.33 w=7 l=1
X232 commonsourceibias.t45 commonsourceibias.t44 gnd.t292 gnd.t210 sky130_fd_pr__nfet_01v8 ad=1.155 pd=7.33 as=1.155 ps=7.33 w=7 l=1
X233 vdd.t15 a_n2356_n452.t70 a_n2318_8322.t22 vdd.t14 sky130_fd_pr__pfet_01v8 ad=1.485 pd=9.33 as=1.485 ps=9.33 w=9 l=0.5
X234 a_n2318_8322.t11 a_n2356_n452.t71 a_n6972_8799.t4 vdd.t11 sky130_fd_pr__pfet_01v8 ad=1.485 pd=9.33 as=1.485 ps=9.33 w=9 l=0.5
X235 CSoutput.t30 a_n6972_8799.t77 vdd.t99 vdd.t98 sky130_fd_pr__pfet_01v8 ad=1.32 pd=8.33 as=1.32 ps=8.33 w=8 l=0.5
X236 a_n6972_8799.t16 plus.t20 a_n3827_n3924.t9 gnd.t0 sky130_fd_pr__nfet_01v8 ad=1.155 pd=7.33 as=1.155 ps=7.33 w=7 l=0.9
X237 vdd.t96 a_n6972_8799.t78 CSoutput.t29 vdd.t45 sky130_fd_pr__pfet_01v8 ad=1.32 pd=8.33 as=1.32 ps=8.33 w=8 l=0.5
X238 vdd.t193 vdd.t191 vdd.t192 vdd.t172 sky130_fd_pr__pfet_01v8 ad=3.12 pd=16.78 as=0 ps=0 w=8 l=0.5
X239 a_n2356_n452.t1 minus.t15 a_n3827_n3924.t1 gnd.t5 sky130_fd_pr__nfet_01v8 ad=1.155 pd=7.33 as=1.155 ps=7.33 w=7 l=0.9
X240 CSoutput.t120 commonsourceibias.t111 gnd.t291 gnd.t242 sky130_fd_pr__nfet_01v8 ad=1.155 pd=7.33 as=1.155 ps=7.33 w=7 l=1
X241 CSoutput.t28 a_n6972_8799.t79 vdd.t97 vdd.t59 sky130_fd_pr__pfet_01v8 ad=1.32 pd=8.33 as=1.32 ps=8.33 w=8 l=0.5
X242 gnd.t207 commonsourceibias.t112 CSoutput.t119 gnd.t201 sky130_fd_pr__nfet_01v8 ad=1.155 pd=7.33 as=1.155 ps=7.33 w=7 l=1
X243 a_n3827_n3924.t4 minus.t16 a_n2356_n452.t4 gnd.t14 sky130_fd_pr__nfet_01v8 ad=2.73 pd=14.78 as=1.155 ps=7.33 w=7 l=0.9
X244 vdd.t93 a_n6972_8799.t80 CSoutput.t27 vdd.t79 sky130_fd_pr__pfet_01v8 ad=1.32 pd=8.33 as=1.32 ps=8.33 w=8 l=0.5
X245 vdd.t92 a_n6972_8799.t81 CSoutput.t26 vdd.t55 sky130_fd_pr__pfet_01v8 ad=1.32 pd=8.33 as=1.32 ps=8.33 w=8 l=0.5
X246 CSoutput.t118 commonsourceibias.t113 gnd.t290 gnd.t242 sky130_fd_pr__nfet_01v8 ad=1.155 pd=7.33 as=1.155 ps=7.33 w=7 l=1
X247 gnd.t289 commonsourceibias.t114 CSoutput.t117 gnd.t269 sky130_fd_pr__nfet_01v8 ad=1.155 pd=7.33 as=1.155 ps=7.33 w=7 l=1
X248 gnd.t288 commonsourceibias.t115 CSoutput.t116 gnd.t227 sky130_fd_pr__nfet_01v8 ad=2.73 pd=14.78 as=1.155 ps=7.33 w=7 l=1