* NGSPICE file created from opamp51.ext - technology: sky130A

.subckt opamp51 gnd CSoutput output vdd plus minus commonsourceibias outputibias diffpairibias
X0 a_n1808_13878.t17 a_n1986_13878.t36 a_n1986_13878.t37 vdd.t182 sky130_fd_pr__pfet_01v8 ad=1.485 pd=9.33 as=1.485 ps=9.33 w=9 l=0.5
X1 a_n1808_13878.t19 a_n1986_13878.t44 vdd.t193 vdd.t192 sky130_fd_pr__pfet_01v8 ad=1.485 pd=9.33 as=1.485 ps=9.33 w=9 l=0.5
X2 CSoutput.t63 a_n5644_8799.t32 vdd.t45 vdd.t24 sky130_fd_pr__pfet_01v8 ad=1.32 pd=8.33 as=1.32 ps=8.33 w=8 l=0.5
X3 CSoutput.t68 commonsourceibias.t48 gnd.t310 gnd.t259 sky130_fd_pr__nfet_01v8 ad=1.155 pd=7.33 as=1.155 ps=7.33 w=7 l=1
X4 CSoutput.t74 commonsourceibias.t49 gnd.t309 gnd.t191 sky130_fd_pr__nfet_01v8 ad=1.155 pd=7.33 as=1.155 ps=7.33 w=7 l=1
X5 gnd.t308 commonsourceibias.t50 CSoutput.t73 gnd.t253 sky130_fd_pr__nfet_01v8 ad=1.155 pd=7.33 as=1.155 ps=7.33 w=7 l=1
X6 CSoutput.t69 commonsourceibias.t51 gnd.t307 gnd.t232 sky130_fd_pr__nfet_01v8 ad=1.155 pd=7.33 as=1.155 ps=7.33 w=7 l=1
X7 vdd.t129 vdd.t127 vdd.t128 vdd.t81 sky130_fd_pr__pfet_01v8 ad=3.12 pd=16.78 as=0 ps=0 w=8 l=0.5
X8 output.t19 outputibias.t8 gnd.t1 gnd.t0 sky130_fd_pr__nfet_01v8 ad=2.34 pd=12.78 as=2.34 ps=12.78 w=6 l=2
X9 a_n1986_8322.t13 a_n1986_13878.t45 a_n5644_8799.t19 vdd.t191 sky130_fd_pr__pfet_01v8 ad=1.485 pd=9.33 as=1.485 ps=9.33 w=9 l=0.5
X10 vdd.t28 CSoutput.t120 output.t15 gnd.t17 sky130_fd_pr__nfet_01v8 ad=0.825 pd=5.33 as=0.825 ps=5.33 w=5 l=1
X11 minus.t4 gnd.t162 gnd.t164 gnd.t163 sky130_fd_pr__nfet_01v8 ad=0.165 pd=1.33 as=0.165 ps=1.33 w=1 l=0.5
X12 gnd.t161 gnd.t159 plus.t4 gnd.t160 sky130_fd_pr__nfet_01v8 ad=0.39 pd=2.78 as=0.165 ps=1.33 w=1 l=0.5
X13 gnd.t306 commonsourceibias.t52 CSoutput.t100 gnd.t213 sky130_fd_pr__nfet_01v8 ad=2.73 pd=14.78 as=1.155 ps=7.33 w=7 l=1
X14 a_n5644_8799.t31 plus.t5 a_n2903_n3924.t19 gnd.t311 sky130_fd_pr__nfet_01v8 ad=1.155 pd=7.33 as=1.155 ps=7.33 w=7 l=0.5
X15 CSoutput.t99 commonsourceibias.t53 gnd.t305 gnd.t251 sky130_fd_pr__nfet_01v8 ad=1.155 pd=7.33 as=1.155 ps=7.33 w=7 l=1
X16 gnd.t304 commonsourceibias.t54 CSoutput.t92 gnd.t202 sky130_fd_pr__nfet_01v8 ad=2.73 pd=14.78 as=1.155 ps=7.33 w=7 l=1
X17 CSoutput.t115 commonsourceibias.t55 gnd.t303 gnd.t251 sky130_fd_pr__nfet_01v8 ad=1.155 pd=7.33 as=1.155 ps=7.33 w=7 l=1
X18 gnd.t158 gnd.t155 gnd.t157 gnd.t156 sky130_fd_pr__nfet_01v8 ad=2.34 pd=12.78 as=0 ps=0 w=6 l=2
X19 CSoutput.t104 commonsourceibias.t56 gnd.t302 gnd.t263 sky130_fd_pr__nfet_01v8 ad=1.155 pd=7.33 as=1.155 ps=7.33 w=7 l=1
X20 CSoutput.t14 commonsourceibias.t57 gnd.t301 gnd.t191 sky130_fd_pr__nfet_01v8 ad=1.155 pd=7.33 as=1.155 ps=7.33 w=7 l=1
X21 CSoutput.t62 a_n5644_8799.t33 vdd.t49 vdd.t15 sky130_fd_pr__pfet_01v8 ad=1.32 pd=8.33 as=3.12 ps=16.78 w=8 l=0.5
X22 vdd.t130 a_n5644_8799.t34 CSoutput.t61 vdd.t18 sky130_fd_pr__pfet_01v8 ad=3.12 pd=16.78 as=1.32 ps=8.33 w=8 l=0.5
X23 a_n5644_8799.t24 a_n1986_13878.t46 a_n1986_8322.t12 vdd.t151 sky130_fd_pr__pfet_01v8 ad=1.485 pd=9.33 as=3.51 ps=18.78 w=9 l=0.5
X24 vdd.t140 a_n5644_8799.t35 CSoutput.t60 vdd.t38 sky130_fd_pr__pfet_01v8 ad=1.32 pd=8.33 as=1.32 ps=8.33 w=8 l=0.5
X25 CSoutput.t59 a_n5644_8799.t36 vdd.t194 vdd.t22 sky130_fd_pr__pfet_01v8 ad=1.32 pd=8.33 as=3.12 ps=16.78 w=8 l=0.5
X26 gnd.t300 commonsourceibias.t58 CSoutput.t71 gnd.t243 sky130_fd_pr__nfet_01v8 ad=1.155 pd=7.33 as=1.155 ps=7.33 w=7 l=1
X27 CSoutput.t81 commonsourceibias.t59 gnd.t299 gnd.t221 sky130_fd_pr__nfet_01v8 ad=1.155 pd=7.33 as=1.155 ps=7.33 w=7 l=1
X28 CSoutput.t7 commonsourceibias.t60 gnd.t298 gnd.t259 sky130_fd_pr__nfet_01v8 ad=1.155 pd=7.33 as=1.155 ps=7.33 w=7 l=1
X29 a_n5644_8799.t3 plus.t6 a_n2903_n3924.t18 gnd.t33 sky130_fd_pr__nfet_01v8 ad=1.155 pd=7.33 as=1.155 ps=7.33 w=7 l=0.5
X30 gnd.t154 gnd.t152 gnd.t153 gnd.t76 sky130_fd_pr__nfet_01v8 ad=2.73 pd=14.78 as=0 ps=0 w=7 l=1
X31 CSoutput.t121 a_n1986_8322.t0 sky130_fd_pr__cap_mim_m3_1 l=12 w=12
X32 vdd.t126 vdd.t124 vdd.t125 vdd.t59 sky130_fd_pr__pfet_01v8 ad=3.12 pd=16.78 as=0 ps=0 w=8 l=0.5
X33 CSoutput.t82 commonsourceibias.t61 gnd.t297 gnd.t239 sky130_fd_pr__nfet_01v8 ad=1.155 pd=7.33 as=1.155 ps=7.33 w=7 l=1
X34 CSoutput.t58 a_n5644_8799.t37 vdd.t42 vdd.t41 sky130_fd_pr__pfet_01v8 ad=1.32 pd=8.33 as=1.32 ps=8.33 w=8 l=0.5
X35 a_n2903_n3924.t45 minus.t5 a_n1986_13878.t18 gnd.t30 sky130_fd_pr__nfet_01v8 ad=1.155 pd=7.33 as=1.155 ps=7.33 w=7 l=0.5
X36 gnd.t296 commonsourceibias.t62 CSoutput.t98 gnd.t219 sky130_fd_pr__nfet_01v8 ad=1.155 pd=7.33 as=1.155 ps=7.33 w=7 l=1
X37 a_n2903_n3924.t22 diffpairibias.t16 gnd.t45 gnd.t44 sky130_fd_pr__nfet_01v8 ad=2.73 pd=14.78 as=2.73 ps=14.78 w=7 l=1
X38 a_n1986_13878.t17 minus.t6 a_n2903_n3924.t44 gnd.t38 sky130_fd_pr__nfet_01v8 ad=1.155 pd=7.33 as=1.155 ps=7.33 w=7 l=0.5
X39 a_n2903_n3924.t17 plus.t7 a_n5644_8799.t8 gnd.t171 sky130_fd_pr__nfet_01v8 ad=1.155 pd=7.33 as=1.155 ps=7.33 w=7 l=0.5
X40 CSoutput.t110 commonsourceibias.t63 gnd.t295 gnd.t206 sky130_fd_pr__nfet_01v8 ad=1.155 pd=7.33 as=2.73 ps=14.78 w=7 l=1
X41 gnd.t294 commonsourceibias.t0 commonsourceibias.t1 gnd.t216 sky130_fd_pr__nfet_01v8 ad=1.155 pd=7.33 as=1.155 ps=7.33 w=7 l=1
X42 gnd.t151 gnd.t148 gnd.t150 gnd.t149 sky130_fd_pr__nfet_01v8 ad=2.34 pd=12.78 as=0 ps=0 w=6 l=2
X43 a_n2903_n3924.t16 plus.t8 a_n5644_8799.t0 gnd.t22 sky130_fd_pr__nfet_01v8 ad=1.155 pd=7.33 as=1.155 ps=7.33 w=7 l=0.5
X44 a_n2903_n3924.t43 minus.t7 a_n1986_13878.t14 gnd.t188 sky130_fd_pr__nfet_01v8 ad=1.155 pd=7.33 as=1.155 ps=7.33 w=7 l=0.5
X45 CSoutput.t70 commonsourceibias.t64 gnd.t293 gnd.t239 sky130_fd_pr__nfet_01v8 ad=1.155 pd=7.33 as=1.155 ps=7.33 w=7 l=1
X46 a_n1808_13878.t16 a_n1986_13878.t20 a_n1986_13878.t21 vdd.t158 sky130_fd_pr__pfet_01v8 ad=1.485 pd=9.33 as=3.51 ps=18.78 w=9 l=0.5
X47 a_n1986_13878.t43 a_n1986_13878.t42 a_n1808_13878.t15 vdd.t167 sky130_fd_pr__pfet_01v8 ad=1.485 pd=9.33 as=1.485 ps=9.33 w=9 l=0.5
X48 CSoutput.t57 a_n5644_8799.t38 vdd.t40 vdd.t6 sky130_fd_pr__pfet_01v8 ad=1.32 pd=8.33 as=1.32 ps=8.33 w=8 l=0.5
X49 vdd.t39 a_n5644_8799.t39 CSoutput.t56 vdd.t38 sky130_fd_pr__pfet_01v8 ad=1.32 pd=8.33 as=1.32 ps=8.33 w=8 l=0.5
X50 CSoutput.t15 commonsourceibias.t65 gnd.t292 gnd.t228 sky130_fd_pr__nfet_01v8 ad=1.155 pd=7.33 as=1.155 ps=7.33 w=7 l=1
X51 outputibias.t7 outputibias.t6 gnd.t29 gnd.t28 sky130_fd_pr__nfet_01v8 ad=2.34 pd=12.78 as=2.34 ps=12.78 w=6 l=2
X52 gnd.t291 commonsourceibias.t66 CSoutput.t0 gnd.t253 sky130_fd_pr__nfet_01v8 ad=1.155 pd=7.33 as=1.155 ps=7.33 w=7 l=1
X53 vdd.t123 vdd.t121 vdd.t122 vdd.t91 sky130_fd_pr__pfet_01v8 ad=3.51 pd=18.78 as=0 ps=0 w=9 l=0.5
X54 CSoutput.t66 commonsourceibias.t67 gnd.t290 gnd.t228 sky130_fd_pr__nfet_01v8 ad=1.155 pd=7.33 as=1.155 ps=7.33 w=7 l=1
X55 a_n2903_n3924.t42 minus.t8 a_n1986_13878.t13 gnd.t313 sky130_fd_pr__nfet_01v8 ad=1.155 pd=7.33 as=1.155 ps=7.33 w=7 l=0.5
X56 gnd.t147 gnd.t145 gnd.t146 gnd.t76 sky130_fd_pr__nfet_01v8 ad=2.73 pd=14.78 as=0 ps=0 w=7 l=1
X57 CSoutput.t80 commonsourceibias.t68 gnd.t289 gnd.t251 sky130_fd_pr__nfet_01v8 ad=1.155 pd=7.33 as=1.155 ps=7.33 w=7 l=1
X58 gnd.t288 commonsourceibias.t2 commonsourceibias.t3 gnd.t193 sky130_fd_pr__nfet_01v8 ad=1.155 pd=7.33 as=1.155 ps=7.33 w=7 l=1
X59 gnd.t144 gnd.t142 gnd.t143 gnd.t58 sky130_fd_pr__nfet_01v8 ad=2.73 pd=14.78 as=0 ps=0 w=7 l=1
X60 diffpairibias.t15 diffpairibias.t14 gnd.t178 gnd.t177 sky130_fd_pr__nfet_01v8 ad=2.73 pd=14.78 as=2.73 ps=14.78 w=7 l=1
X61 CSoutput.t67 commonsourceibias.t69 gnd.t287 gnd.t237 sky130_fd_pr__nfet_01v8 ad=1.155 pd=7.33 as=2.73 ps=14.78 w=7 l=1
X62 CSoutput.t8 commonsourceibias.t70 gnd.t286 gnd.t206 sky130_fd_pr__nfet_01v8 ad=1.155 pd=7.33 as=2.73 ps=14.78 w=7 l=1
X63 vdd.t120 vdd.t118 vdd.t119 vdd.t70 sky130_fd_pr__pfet_01v8 ad=3.12 pd=16.78 as=0 ps=0 w=8 l=0.5
X64 gnd.t141 gnd.t140 plus.t3 gnd.t69 sky130_fd_pr__nfet_01v8 ad=0.165 pd=1.33 as=0.165 ps=1.33 w=1 l=0.5
X65 gnd.t285 commonsourceibias.t71 CSoutput.t93 gnd.t224 sky130_fd_pr__nfet_01v8 ad=1.155 pd=7.33 as=1.155 ps=7.33 w=7 l=1
X66 gnd.t139 gnd.t137 gnd.t138 gnd.t69 sky130_fd_pr__nfet_01v8 ad=2.73 pd=14.78 as=0 ps=0 w=7 l=0.5
X67 gnd.t284 commonsourceibias.t72 CSoutput.t65 gnd.t200 sky130_fd_pr__nfet_01v8 ad=1.155 pd=7.33 as=1.155 ps=7.33 w=7 l=1
X68 vdd.t32 a_n5644_8799.t40 CSoutput.t55 vdd.t20 sky130_fd_pr__pfet_01v8 ad=1.32 pd=8.33 as=1.32 ps=8.33 w=8 l=0.5
X69 CSoutput.t54 a_n5644_8799.t41 vdd.t23 vdd.t22 sky130_fd_pr__pfet_01v8 ad=1.32 pd=8.33 as=3.12 ps=16.78 w=8 l=0.5
X70 vdd.t52 a_n5644_8799.t42 CSoutput.t53 vdd.t38 sky130_fd_pr__pfet_01v8 ad=1.32 pd=8.33 as=1.32 ps=8.33 w=8 l=0.5
X71 minus.t3 gnd.t134 gnd.t136 gnd.t135 sky130_fd_pr__nfet_01v8 ad=0.165 pd=1.33 as=0.165 ps=1.33 w=1 l=0.5
X72 CSoutput.t11 commonsourceibias.t73 gnd.t265 gnd.t237 sky130_fd_pr__nfet_01v8 ad=1.155 pd=7.33 as=2.73 ps=14.78 w=7 l=1
X73 diffpairibias.t13 diffpairibias.t12 gnd.t32 gnd.t31 sky130_fd_pr__nfet_01v8 ad=2.73 pd=14.78 as=2.73 ps=14.78 w=7 l=1
X74 gnd.t283 commonsourceibias.t34 commonsourceibias.t35 gnd.t226 sky130_fd_pr__nfet_01v8 ad=1.155 pd=7.33 as=1.155 ps=7.33 w=7 l=1
X75 CSoutput.t10 commonsourceibias.t74 gnd.t282 gnd.t211 sky130_fd_pr__nfet_01v8 ad=1.155 pd=7.33 as=1.155 ps=7.33 w=7 l=1
X76 output.t14 CSoutput.t122 vdd.t29 gnd.t16 sky130_fd_pr__nfet_01v8 ad=0.825 pd=5.33 as=0.825 ps=5.33 w=5 l=1
X77 gnd.t281 commonsourceibias.t75 CSoutput.t72 gnd.t226 sky130_fd_pr__nfet_01v8 ad=1.155 pd=7.33 as=1.155 ps=7.33 w=7 l=1
X78 CSoutput.t88 commonsourceibias.t76 gnd.t280 gnd.t263 sky130_fd_pr__nfet_01v8 ad=1.155 pd=7.33 as=1.155 ps=7.33 w=7 l=1
X79 CSoutput.t52 a_n5644_8799.t43 vdd.t51 vdd.t50 sky130_fd_pr__pfet_01v8 ad=1.32 pd=8.33 as=1.32 ps=8.33 w=8 l=0.5
X80 vdd.t53 a_n5644_8799.t44 CSoutput.t51 vdd.t8 sky130_fd_pr__pfet_01v8 ad=1.32 pd=8.33 as=1.32 ps=8.33 w=8 l=0.5
X81 gnd.t279 commonsourceibias.t77 CSoutput.t87 gnd.t243 sky130_fd_pr__nfet_01v8 ad=1.155 pd=7.33 as=1.155 ps=7.33 w=7 l=1
X82 CSoutput.t50 a_n5644_8799.t45 vdd.t138 vdd.t50 sky130_fd_pr__pfet_01v8 ad=1.32 pd=8.33 as=1.32 ps=8.33 w=8 l=0.5
X83 CSoutput.t49 a_n5644_8799.t46 vdd.t132 vdd.t41 sky130_fd_pr__pfet_01v8 ad=1.32 pd=8.33 as=1.32 ps=8.33 w=8 l=0.5
X84 vdd.t17 a_n5644_8799.t47 CSoutput.t48 vdd.t2 sky130_fd_pr__pfet_01v8 ad=1.32 pd=8.33 as=1.32 ps=8.33 w=8 l=0.5
X85 a_n5644_8799.t30 plus.t9 a_n2903_n3924.t15 gnd.t312 sky130_fd_pr__nfet_01v8 ad=1.155 pd=7.33 as=1.155 ps=7.33 w=7 l=0.5
X86 gnd.t278 commonsourceibias.t78 CSoutput.t3 gnd.t226 sky130_fd_pr__nfet_01v8 ad=1.155 pd=7.33 as=1.155 ps=7.33 w=7 l=1
X87 output.t13 CSoutput.t123 vdd.t30 gnd.t15 sky130_fd_pr__nfet_01v8 ad=0.825 pd=5.33 as=0.825 ps=5.33 w=5 l=1
X88 a_n2903_n3924.t23 diffpairibias.t17 gnd.t167 gnd.t166 sky130_fd_pr__nfet_01v8 ad=2.73 pd=14.78 as=2.73 ps=14.78 w=7 l=1
X89 vdd.t37 a_n5644_8799.t48 CSoutput.t47 vdd.t18 sky130_fd_pr__pfet_01v8 ad=3.12 pd=16.78 as=1.32 ps=8.33 w=8 l=0.5
X90 a_n5644_8799.t26 a_n1986_13878.t47 a_n1986_8322.t11 vdd.t181 sky130_fd_pr__pfet_01v8 ad=1.485 pd=9.33 as=1.485 ps=9.33 w=9 l=0.5
X91 a_n1986_13878.t29 a_n1986_13878.t28 a_n1808_13878.t14 vdd.t191 sky130_fd_pr__pfet_01v8 ad=1.485 pd=9.33 as=1.485 ps=9.33 w=9 l=0.5
X92 a_n2903_n3924.t41 minus.t9 a_n1986_13878.t12 gnd.t23 sky130_fd_pr__nfet_01v8 ad=1.155 pd=7.33 as=1.155 ps=7.33 w=7 l=0.5
X93 gnd.t277 commonsourceibias.t79 CSoutput.t111 gnd.t219 sky130_fd_pr__nfet_01v8 ad=1.155 pd=7.33 as=1.155 ps=7.33 w=7 l=1
X94 gnd.t133 gnd.t131 gnd.t132 gnd.t62 sky130_fd_pr__nfet_01v8 ad=2.73 pd=14.78 as=0 ps=0 w=7 l=1
X95 a_n1986_13878.t25 a_n1986_13878.t24 a_n1808_13878.t13 vdd.t154 sky130_fd_pr__pfet_01v8 ad=3.51 pd=18.78 as=1.485 ps=9.33 w=9 l=0.5
X96 vdd.t196 a_n5644_8799.t49 CSoutput.t46 vdd.t2 sky130_fd_pr__pfet_01v8 ad=1.32 pd=8.33 as=1.32 ps=8.33 w=8 l=0.5
X97 gnd.t130 gnd.t128 gnd.t129 gnd.t62 sky130_fd_pr__nfet_01v8 ad=2.73 pd=14.78 as=0 ps=0 w=7 l=1
X98 a_n2903_n3924.t14 plus.t10 a_n5644_8799.t5 gnd.t43 sky130_fd_pr__nfet_01v8 ad=1.155 pd=7.33 as=1.155 ps=7.33 w=7 l=0.5
X99 a_n1986_13878.t11 minus.t10 a_n2903_n3924.t40 gnd.t184 sky130_fd_pr__nfet_01v8 ad=1.155 pd=7.33 as=1.155 ps=7.33 w=7 l=0.5
X100 vdd.t117 vdd.t115 vdd.t116 vdd.t70 sky130_fd_pr__pfet_01v8 ad=3.12 pd=16.78 as=0 ps=0 w=8 l=0.5
X101 gnd.t275 commonsourceibias.t80 CSoutput.t94 gnd.t197 sky130_fd_pr__nfet_01v8 ad=1.155 pd=7.33 as=1.155 ps=7.33 w=7 l=1
X102 a_n2903_n3924.t39 minus.t11 a_n1986_13878.t10 gnd.t190 sky130_fd_pr__nfet_01v8 ad=2.73 pd=14.78 as=1.155 ps=7.33 w=7 l=0.5
X103 vdd.t149 a_n5644_8799.t50 CSoutput.t45 vdd.t20 sky130_fd_pr__pfet_01v8 ad=1.32 pd=8.33 as=1.32 ps=8.33 w=8 l=0.5
X104 vdd.t114 vdd.t112 vdd.t113 vdd.t99 sky130_fd_pr__pfet_01v8 ad=3.51 pd=18.78 as=0 ps=0 w=9 l=0.5
X105 gnd.t276 commonsourceibias.t81 CSoutput.t4 gnd.t216 sky130_fd_pr__nfet_01v8 ad=1.155 pd=7.33 as=1.155 ps=7.33 w=7 l=1
X106 output.t12 CSoutput.t124 vdd.t31 gnd.t14 sky130_fd_pr__nfet_01v8 ad=0.825 pd=5.33 as=0.825 ps=5.33 w=5 l=1
X107 gnd.t274 commonsourceibias.t4 commonsourceibias.t5 gnd.t202 sky130_fd_pr__nfet_01v8 ad=2.73 pd=14.78 as=1.155 ps=7.33 w=7 l=1
X108 vdd.t111 vdd.t108 vdd.t110 vdd.t109 sky130_fd_pr__pfet_01v8 ad=3.51 pd=18.78 as=0 ps=0 w=9 l=0.5
X109 vdd.t107 vdd.t105 vdd.t106 vdd.t95 sky130_fd_pr__pfet_01v8 ad=3.51 pd=18.78 as=0 ps=0 w=9 l=0.5
X110 vdd.t104 vdd.t102 vdd.t103 vdd.t55 sky130_fd_pr__pfet_01v8 ad=3.51 pd=18.78 as=0 ps=0 w=9 l=0.5
X111 gnd.t127 gnd.t124 gnd.t126 gnd.t125 sky130_fd_pr__nfet_01v8 ad=1.95 pd=10.78 as=0 ps=0 w=5 l=1
X112 CSoutput.t125 a_n1986_8322.t1 sky130_fd_pr__cap_mim_m3_1 l=12 w=12
X113 output.t18 outputibias.t9 gnd.t27 gnd.t26 sky130_fd_pr__nfet_01v8 ad=2.34 pd=12.78 as=2.34 ps=12.78 w=6 l=2
X114 a_n1986_8322.t21 a_n1986_13878.t48 vdd.t190 vdd.t189 sky130_fd_pr__pfet_01v8 ad=1.485 pd=9.33 as=1.485 ps=9.33 w=9 l=0.5
X115 vdd.t188 a_n1986_13878.t49 a_n1986_8322.t20 vdd.t187 sky130_fd_pr__pfet_01v8 ad=1.485 pd=9.33 as=1.485 ps=9.33 w=9 l=0.5
X116 CSoutput.t44 a_n5644_8799.t51 vdd.t199 vdd.t50 sky130_fd_pr__pfet_01v8 ad=1.32 pd=8.33 as=1.32 ps=8.33 w=8 l=0.5
X117 a_n1986_13878.t9 minus.t12 a_n2903_n3924.t38 gnd.t172 sky130_fd_pr__nfet_01v8 ad=1.155 pd=7.33 as=1.155 ps=7.33 w=7 l=0.5
X118 CSoutput.t83 commonsourceibias.t82 gnd.t273 gnd.t263 sky130_fd_pr__nfet_01v8 ad=1.155 pd=7.33 as=1.155 ps=7.33 w=7 l=1
X119 vdd.t136 CSoutput.t126 output.t11 gnd.t13 sky130_fd_pr__nfet_01v8 ad=0.825 pd=5.33 as=0.825 ps=5.33 w=5 l=1
X120 a_n2903_n3924.t24 diffpairibias.t18 gnd.t174 gnd.t173 sky130_fd_pr__nfet_01v8 ad=2.73 pd=14.78 as=2.73 ps=14.78 w=7 l=1
X121 outputibias.t5 outputibias.t4 gnd.t37 gnd.t36 sky130_fd_pr__nfet_01v8 ad=2.34 pd=12.78 as=2.34 ps=12.78 w=6 l=2
X122 vdd.t3 a_n5644_8799.t52 CSoutput.t43 vdd.t2 sky130_fd_pr__pfet_01v8 ad=1.32 pd=8.33 as=1.32 ps=8.33 w=8 l=0.5
X123 gnd.t123 gnd.t121 gnd.t122 gnd.t58 sky130_fd_pr__nfet_01v8 ad=2.73 pd=14.78 as=0 ps=0 w=7 l=1
X124 CSoutput.t5 commonsourceibias.t83 gnd.t272 gnd.t259 sky130_fd_pr__nfet_01v8 ad=1.155 pd=7.33 as=1.155 ps=7.33 w=7 l=1
X125 vdd.t186 a_n1986_13878.t50 a_n1808_13878.t3 vdd.t185 sky130_fd_pr__pfet_01v8 ad=1.485 pd=9.33 as=1.485 ps=9.33 w=9 l=0.5
X126 a_n2903_n3924.t13 plus.t11 a_n5644_8799.t7 gnd.t170 sky130_fd_pr__nfet_01v8 ad=1.155 pd=7.33 as=1.155 ps=7.33 w=7 l=0.5
X127 vdd.t101 vdd.t98 vdd.t100 vdd.t99 sky130_fd_pr__pfet_01v8 ad=3.51 pd=18.78 as=0 ps=0 w=9 l=0.5
X128 outputibias.t3 outputibias.t2 gnd.t320 gnd.t319 sky130_fd_pr__nfet_01v8 ad=2.34 pd=12.78 as=2.34 ps=12.78 w=6 l=2
X129 vdd.t97 vdd.t94 vdd.t96 vdd.t95 sky130_fd_pr__pfet_01v8 ad=3.51 pd=18.78 as=0 ps=0 w=9 l=0.5
X130 vdd.t19 a_n5644_8799.t53 CSoutput.t42 vdd.t18 sky130_fd_pr__pfet_01v8 ad=3.12 pd=16.78 as=1.32 ps=8.33 w=8 l=0.5
X131 gnd.t120 gnd.t118 gnd.t119 gnd.t62 sky130_fd_pr__nfet_01v8 ad=2.73 pd=14.78 as=0 ps=0 w=7 l=1
X132 a_n5644_8799.t15 a_n1986_13878.t51 a_n1986_8322.t10 vdd.t159 sky130_fd_pr__pfet_01v8 ad=1.485 pd=9.33 as=1.485 ps=9.33 w=9 l=0.5
X133 a_n1986_8322.t19 a_n1986_13878.t52 vdd.t184 vdd.t183 sky130_fd_pr__pfet_01v8 ad=3.51 pd=18.78 as=1.485 ps=9.33 w=9 l=0.5
X134 vdd.t93 vdd.t90 vdd.t92 vdd.t91 sky130_fd_pr__pfet_01v8 ad=3.51 pd=18.78 as=0 ps=0 w=9 l=0.5
X135 a_n1986_13878.t16 minus.t13 a_n2903_n3924.t37 gnd.t183 sky130_fd_pr__nfet_01v8 ad=1.155 pd=7.33 as=1.155 ps=7.33 w=7 l=0.5
X136 a_n5644_8799.t27 plus.t12 a_n2903_n3924.t12 gnd.t189 sky130_fd_pr__nfet_01v8 ad=1.155 pd=7.33 as=2.73 ps=14.78 w=7 l=0.5
X137 a_n1986_13878.t31 a_n1986_13878.t30 a_n1808_13878.t12 vdd.t170 sky130_fd_pr__pfet_01v8 ad=1.485 pd=9.33 as=1.485 ps=9.33 w=9 l=0.5
X138 diffpairibias.t11 diffpairibias.t10 gnd.t35 gnd.t34 sky130_fd_pr__nfet_01v8 ad=2.73 pd=14.78 as=2.73 ps=14.78 w=7 l=1
X139 a_n5644_8799.t16 a_n1986_13878.t53 a_n1986_8322.t9 vdd.t182 sky130_fd_pr__pfet_01v8 ad=1.485 pd=9.33 as=1.485 ps=9.33 w=9 l=0.5
X140 vdd.t137 CSoutput.t127 output.t10 gnd.t12 sky130_fd_pr__nfet_01v8 ad=0.825 pd=5.33 as=0.825 ps=5.33 w=5 l=1
X141 CSoutput.t89 commonsourceibias.t84 gnd.t271 gnd.t232 sky130_fd_pr__nfet_01v8 ad=1.155 pd=7.33 as=1.155 ps=7.33 w=7 l=1
X142 a_n1808_13878.t11 a_n1986_13878.t38 a_n1986_13878.t39 vdd.t181 sky130_fd_pr__pfet_01v8 ad=1.485 pd=9.33 as=1.485 ps=9.33 w=9 l=0.5
X143 gnd.t270 commonsourceibias.t85 CSoutput.t12 gnd.t253 sky130_fd_pr__nfet_01v8 ad=1.155 pd=7.33 as=1.155 ps=7.33 w=7 l=1
X144 output.t9 CSoutput.t128 vdd.t0 gnd.t11 sky130_fd_pr__nfet_01v8 ad=0.825 pd=5.33 as=0.825 ps=5.33 w=5 l=1
X145 commonsourceibias.t9 commonsourceibias.t8 gnd.t269 gnd.t191 sky130_fd_pr__nfet_01v8 ad=1.155 pd=7.33 as=1.155 ps=7.33 w=7 l=1
X146 plus.t2 gnd.t115 gnd.t117 gnd.t116 sky130_fd_pr__nfet_01v8 ad=0.165 pd=1.33 as=0.165 ps=1.33 w=1 l=0.5
X147 CSoutput.t129 a_n1986_8322.t1 sky130_fd_pr__cap_mim_m3_1 l=12 w=12
X148 vdd.t180 a_n1986_13878.t54 a_n1986_8322.t18 vdd.t179 sky130_fd_pr__pfet_01v8 ad=1.485 pd=9.33 as=3.51 ps=18.78 w=9 l=0.5
X149 gnd.t114 gnd.t112 minus.t2 gnd.t113 sky130_fd_pr__nfet_01v8 ad=0.39 pd=2.78 as=0.165 ps=1.33 w=1 l=0.5
X150 CSoutput.t75 commonsourceibias.t86 gnd.t268 gnd.t228 sky130_fd_pr__nfet_01v8 ad=1.155 pd=7.33 as=1.155 ps=7.33 w=7 l=1
X151 a_n1986_13878.t15 minus.t14 a_n2903_n3924.t36 gnd.t165 sky130_fd_pr__nfet_01v8 ad=1.155 pd=7.33 as=1.155 ps=7.33 w=7 l=0.5
X152 output.t8 CSoutput.t130 vdd.t1 gnd.t10 sky130_fd_pr__nfet_01v8 ad=0.825 pd=5.33 as=0.825 ps=5.33 w=5 l=1
X153 CSoutput.t131 a_n1986_8322.t0 sky130_fd_pr__cap_mim_m3_1 l=12 w=12
X154 vdd.t89 vdd.t87 vdd.t88 vdd.t81 sky130_fd_pr__pfet_01v8 ad=3.12 pd=16.78 as=0 ps=0 w=8 l=0.5
X155 gnd.t267 commonsourceibias.t87 CSoutput.t114 gnd.t243 sky130_fd_pr__nfet_01v8 ad=1.155 pd=7.33 as=1.155 ps=7.33 w=7 l=1
X156 gnd.t266 commonsourceibias.t88 CSoutput.t117 gnd.t224 sky130_fd_pr__nfet_01v8 ad=1.155 pd=7.33 as=1.155 ps=7.33 w=7 l=1
X157 commonsourceibias.t7 commonsourceibias.t6 gnd.t264 gnd.t263 sky130_fd_pr__nfet_01v8 ad=1.155 pd=7.33 as=1.155 ps=7.33 w=7 l=1
X158 CSoutput.t41 a_n5644_8799.t54 vdd.t7 vdd.t6 sky130_fd_pr__pfet_01v8 ad=1.32 pd=8.33 as=1.32 ps=8.33 w=8 l=0.5
X159 vdd.t5 a_n5644_8799.t55 CSoutput.t40 vdd.t4 sky130_fd_pr__pfet_01v8 ad=3.12 pd=16.78 as=1.32 ps=8.33 w=8 l=0.5
X160 gnd.t262 commonsourceibias.t89 CSoutput.t9 gnd.t213 sky130_fd_pr__nfet_01v8 ad=2.73 pd=14.78 as=1.155 ps=7.33 w=7 l=1
X161 CSoutput.t85 commonsourceibias.t90 gnd.t261 gnd.t221 sky130_fd_pr__nfet_01v8 ad=1.155 pd=7.33 as=1.155 ps=7.33 w=7 l=1
X162 outputibias.t1 outputibias.t0 gnd.t40 gnd.t39 sky130_fd_pr__nfet_01v8 ad=2.34 pd=12.78 as=2.34 ps=12.78 w=6 l=2
X163 gnd.t111 gnd.t108 gnd.t110 gnd.t109 sky130_fd_pr__nfet_01v8 ad=2.73 pd=14.78 as=0 ps=0 w=7 l=1
X164 a_n2903_n3924.t46 diffpairibias.t19 gnd.t316 gnd.t315 sky130_fd_pr__nfet_01v8 ad=2.73 pd=14.78 as=2.73 ps=14.78 w=7 l=1
X165 a_n1986_13878.t6 minus.t15 a_n2903_n3924.t35 gnd.t311 sky130_fd_pr__nfet_01v8 ad=1.155 pd=7.33 as=1.155 ps=7.33 w=7 l=0.5
X166 a_n2903_n3924.t20 diffpairibias.t20 gnd.t19 gnd.t18 sky130_fd_pr__nfet_01v8 ad=2.73 pd=14.78 as=2.73 ps=14.78 w=7 l=1
X167 output.t17 outputibias.t10 gnd.t176 gnd.t175 sky130_fd_pr__nfet_01v8 ad=2.34 pd=12.78 as=2.34 ps=12.78 w=6 l=2
X168 commonsourceibias.t13 commonsourceibias.t12 gnd.t260 gnd.t259 sky130_fd_pr__nfet_01v8 ad=1.155 pd=7.33 as=1.155 ps=7.33 w=7 l=1
X169 vdd.t43 a_n5644_8799.t56 CSoutput.t39 vdd.t10 sky130_fd_pr__pfet_01v8 ad=1.32 pd=8.33 as=1.32 ps=8.33 w=8 l=0.5
X170 gnd.t107 gnd.t105 gnd.t106 gnd.t76 sky130_fd_pr__nfet_01v8 ad=2.73 pd=14.78 as=0 ps=0 w=7 l=1
X171 gnd.t104 gnd.t102 minus.t1 gnd.t103 sky130_fd_pr__nfet_01v8 ad=0.165 pd=1.33 as=0.39 ps=2.78 w=1 l=0.5
X172 CSoutput.t108 commonsourceibias.t91 gnd.t258 gnd.t232 sky130_fd_pr__nfet_01v8 ad=1.155 pd=7.33 as=1.155 ps=7.33 w=7 l=1
X173 vdd.t47 CSoutput.t132 output.t7 gnd.t9 sky130_fd_pr__nfet_01v8 ad=0.825 pd=5.33 as=0.825 ps=5.33 w=5 l=1
X174 CSoutput.t79 commonsourceibias.t92 gnd.t257 gnd.t211 sky130_fd_pr__nfet_01v8 ad=1.155 pd=7.33 as=1.155 ps=7.33 w=7 l=1
X175 gnd.t101 gnd.t99 gnd.t100 gnd.t50 sky130_fd_pr__nfet_01v8 ad=2.73 pd=14.78 as=0 ps=0 w=7 l=0.5
X176 gnd.t98 gnd.t96 gnd.t97 gnd.t54 sky130_fd_pr__nfet_01v8 ad=2.73 pd=14.78 as=0 ps=0 w=7 l=1
X177 CSoutput.t38 a_n5644_8799.t57 vdd.t27 vdd.t26 sky130_fd_pr__pfet_01v8 ad=1.32 pd=8.33 as=1.32 ps=8.33 w=8 l=0.5
X178 a_n1986_13878.t5 minus.t16 a_n2903_n3924.t34 gnd.t33 sky130_fd_pr__nfet_01v8 ad=1.155 pd=7.33 as=1.155 ps=7.33 w=7 l=0.5
X179 commonsourceibias.t11 commonsourceibias.t10 gnd.t256 gnd.t239 sky130_fd_pr__nfet_01v8 ad=1.155 pd=7.33 as=1.155 ps=7.33 w=7 l=1
X180 a_n1808_13878.t1 a_n1986_13878.t55 vdd.t178 vdd.t177 sky130_fd_pr__pfet_01v8 ad=1.485 pd=9.33 as=1.485 ps=9.33 w=9 l=0.5
X181 diffpairibias.t9 diffpairibias.t8 gnd.t318 gnd.t317 sky130_fd_pr__nfet_01v8 ad=2.73 pd=14.78 as=2.73 ps=14.78 w=7 l=1
X182 vdd.t86 vdd.t84 vdd.t85 vdd.t66 sky130_fd_pr__pfet_01v8 ad=3.12 pd=16.78 as=0 ps=0 w=8 l=0.5
X183 vdd.t176 a_n1986_13878.t56 a_n1808_13878.t0 vdd.t175 sky130_fd_pr__pfet_01v8 ad=1.485 pd=9.33 as=1.485 ps=9.33 w=9 l=0.5
X184 CSoutput.t86 commonsourceibias.t93 gnd.t248 gnd.t221 sky130_fd_pr__nfet_01v8 ad=1.155 pd=7.33 as=1.155 ps=7.33 w=7 l=1
X185 CSoutput.t118 commonsourceibias.t94 gnd.t255 gnd.t195 sky130_fd_pr__nfet_01v8 ad=1.155 pd=7.33 as=1.155 ps=7.33 w=7 l=1
X186 a_n2903_n3924.t11 plus.t13 a_n5644_8799.t2 gnd.t30 sky130_fd_pr__nfet_01v8 ad=1.155 pd=7.33 as=1.155 ps=7.33 w=7 l=0.5
X187 gnd.t254 commonsourceibias.t40 commonsourceibias.t41 gnd.t253 sky130_fd_pr__nfet_01v8 ad=1.155 pd=7.33 as=1.155 ps=7.33 w=7 l=1
X188 vdd.t83 vdd.t80 vdd.t82 vdd.t81 sky130_fd_pr__pfet_01v8 ad=3.12 pd=16.78 as=0 ps=0 w=8 l=0.5
X189 commonsourceibias.t39 commonsourceibias.t38 gnd.t252 gnd.t251 sky130_fd_pr__nfet_01v8 ad=1.155 pd=7.33 as=1.155 ps=7.33 w=7 l=1
X190 a_n2903_n3924.t33 minus.t17 a_n1986_13878.t4 gnd.t22 sky130_fd_pr__nfet_01v8 ad=1.155 pd=7.33 as=1.155 ps=7.33 w=7 l=0.5
X191 a_n2903_n3924.t10 plus.t14 a_n5644_8799.t13 gnd.t188 sky130_fd_pr__nfet_01v8 ad=1.155 pd=7.33 as=1.155 ps=7.33 w=7 l=0.5
X192 CSoutput.t37 a_n5644_8799.t58 vdd.t46 vdd.t6 sky130_fd_pr__pfet_01v8 ad=1.32 pd=8.33 as=1.32 ps=8.33 w=8 l=0.5
X193 vdd.t148 a_n5644_8799.t59 CSoutput.t36 vdd.t4 sky130_fd_pr__pfet_01v8 ad=3.12 pd=16.78 as=1.32 ps=8.33 w=8 l=0.5
X194 gnd.t250 commonsourceibias.t95 CSoutput.t95 gnd.t204 sky130_fd_pr__nfet_01v8 ad=1.155 pd=7.33 as=1.155 ps=7.33 w=7 l=1
X195 a_n5644_8799.t12 plus.t15 a_n2903_n3924.t9 gnd.t185 sky130_fd_pr__nfet_01v8 ad=1.155 pd=7.33 as=2.73 ps=14.78 w=7 l=0.5
X196 a_n2903_n3924.t32 minus.t18 a_n1986_13878.t19 gnd.t314 sky130_fd_pr__nfet_01v8 ad=2.73 pd=14.78 as=1.155 ps=7.33 w=7 l=0.5
X197 commonsourceibias.t37 commonsourceibias.t36 gnd.t249 gnd.t206 sky130_fd_pr__nfet_01v8 ad=1.155 pd=7.33 as=2.73 ps=14.78 w=7 l=1
X198 a_n1986_8322.t8 a_n1986_13878.t57 a_n5644_8799.t20 vdd.t150 sky130_fd_pr__pfet_01v8 ad=1.485 pd=9.33 as=1.485 ps=9.33 w=9 l=0.5
X199 gnd.t247 commonsourceibias.t22 commonsourceibias.t23 gnd.t200 sky130_fd_pr__nfet_01v8 ad=1.155 pd=7.33 as=1.155 ps=7.33 w=7 l=1
X200 CSoutput.t35 a_n5644_8799.t60 vdd.t36 vdd.t34 sky130_fd_pr__pfet_01v8 ad=1.32 pd=8.33 as=1.32 ps=8.33 w=8 l=0.5
X201 gnd.t88 gnd.t86 gnd.t87 gnd.t54 sky130_fd_pr__nfet_01v8 ad=2.73 pd=14.78 as=0 ps=0 w=7 l=1
X202 diffpairibias.t7 diffpairibias.t6 gnd.t169 gnd.t168 sky130_fd_pr__nfet_01v8 ad=2.73 pd=14.78 as=2.73 ps=14.78 w=7 l=1
X203 commonsourceibias.t21 commonsourceibias.t20 gnd.t246 gnd.t237 sky130_fd_pr__nfet_01v8 ad=1.155 pd=7.33 as=2.73 ps=14.78 w=7 l=1
X204 gnd.t95 gnd.t92 gnd.t94 gnd.t93 sky130_fd_pr__nfet_01v8 ad=1.95 pd=10.78 as=0 ps=0 w=5 l=1
X205 vdd.t133 a_n5644_8799.t61 CSoutput.t34 vdd.t10 sky130_fd_pr__pfet_01v8 ad=1.32 pd=8.33 as=1.32 ps=8.33 w=8 l=0.5
X206 vdd.t174 a_n1986_13878.t58 a_n1986_8322.t17 vdd.t173 sky130_fd_pr__pfet_01v8 ad=1.485 pd=9.33 as=3.51 ps=18.78 w=9 l=0.5
X207 vdd.t21 a_n5644_8799.t62 CSoutput.t33 vdd.t20 sky130_fd_pr__pfet_01v8 ad=1.32 pd=8.33 as=1.32 ps=8.33 w=8 l=0.5
X208 output.t6 CSoutput.t133 vdd.t48 gnd.t8 sky130_fd_pr__nfet_01v8 ad=0.825 pd=5.33 as=0.825 ps=5.33 w=5 l=1
X209 gnd.t245 commonsourceibias.t96 CSoutput.t102 gnd.t204 sky130_fd_pr__nfet_01v8 ad=1.155 pd=7.33 as=1.155 ps=7.33 w=7 l=1
X210 output.t16 outputibias.t11 gnd.t21 gnd.t20 sky130_fd_pr__nfet_01v8 ad=2.34 pd=12.78 as=2.34 ps=12.78 w=6 l=2
X211 a_n1808_13878.t18 a_n1986_13878.t59 vdd.t172 vdd.t171 sky130_fd_pr__pfet_01v8 ad=3.51 pd=18.78 as=1.485 ps=9.33 w=9 l=0.5
X212 gnd.t244 commonsourceibias.t18 commonsourceibias.t19 gnd.t243 sky130_fd_pr__nfet_01v8 ad=1.155 pd=7.33 as=1.155 ps=7.33 w=7 l=1
X213 plus.t1 gnd.t89 gnd.t91 gnd.t90 sky130_fd_pr__nfet_01v8 ad=0.165 pd=1.33 as=0.165 ps=1.33 w=1 l=0.5
X214 output.t5 CSoutput.t134 vdd.t134 gnd.t7 sky130_fd_pr__nfet_01v8 ad=1.95 pd=10.78 as=0.825 ps=5.33 w=5 l=1
X215 CSoutput.t32 a_n5644_8799.t63 vdd.t44 vdd.t15 sky130_fd_pr__pfet_01v8 ad=1.32 pd=8.33 as=3.12 ps=16.78 w=8 l=0.5
X216 CSoutput.t31 a_n5644_8799.t64 vdd.t197 vdd.t26 sky130_fd_pr__pfet_01v8 ad=1.32 pd=8.33 as=1.32 ps=8.33 w=8 l=0.5
X217 gnd.t85 gnd.t83 minus.t0 gnd.t84 sky130_fd_pr__nfet_01v8 ad=0.165 pd=1.33 as=0.165 ps=1.33 w=1 l=0.5
X218 vdd.t79 vdd.t77 vdd.t78 vdd.t66 sky130_fd_pr__pfet_01v8 ad=3.12 pd=16.78 as=0 ps=0 w=8 l=0.5
X219 gnd.t82 gnd.t79 gnd.t81 gnd.t80 sky130_fd_pr__nfet_01v8 ad=2.73 pd=14.78 as=0 ps=0 w=7 l=1
X220 a_n1986_8322.t7 a_n1986_13878.t60 a_n5644_8799.t21 vdd.t170 sky130_fd_pr__pfet_01v8 ad=1.485 pd=9.33 as=1.485 ps=9.33 w=9 l=0.5
X221 vdd.t169 a_n1986_13878.t61 a_n1986_8322.t16 vdd.t168 sky130_fd_pr__pfet_01v8 ad=1.485 pd=9.33 as=1.485 ps=9.33 w=9 l=0.5
X222 CSoutput.t30 a_n5644_8799.t65 vdd.t198 vdd.t26 sky130_fd_pr__pfet_01v8 ad=1.32 pd=8.33 as=1.32 ps=8.33 w=8 l=0.5
X223 a_n2903_n3924.t21 diffpairibias.t21 gnd.t25 gnd.t24 sky130_fd_pr__nfet_01v8 ad=2.73 pd=14.78 as=2.73 ps=14.78 w=7 l=1
X224 vdd.t14 a_n5644_8799.t66 CSoutput.t29 vdd.t13 sky130_fd_pr__pfet_01v8 ad=1.32 pd=8.33 as=1.32 ps=8.33 w=8 l=0.5
X225 gnd.t242 commonsourceibias.t16 commonsourceibias.t17 gnd.t219 sky130_fd_pr__nfet_01v8 ad=1.155 pd=7.33 as=1.155 ps=7.33 w=7 l=1
X226 CSoutput.t135 a_n1986_8322.t1 sky130_fd_pr__cap_mim_m3_1 l=12 w=12
X227 vdd.t76 vdd.t73 vdd.t75 vdd.t74 sky130_fd_pr__pfet_01v8 ad=3.51 pd=18.78 as=0 ps=0 w=9 l=0.5
X228 vdd.t72 vdd.t69 vdd.t71 vdd.t70 sky130_fd_pr__pfet_01v8 ad=3.12 pd=16.78 as=0 ps=0 w=8 l=0.5
X229 a_n2903_n3924.t8 plus.t16 a_n5644_8799.t1 gnd.t23 sky130_fd_pr__nfet_01v8 ad=1.155 pd=7.33 as=1.155 ps=7.33 w=7 l=0.5
X230 vdd.t135 CSoutput.t136 output.t4 gnd.t6 sky130_fd_pr__nfet_01v8 ad=0.825 pd=5.33 as=1.95 ps=10.78 w=5 l=1
X231 gnd.t241 commonsourceibias.t14 commonsourceibias.t15 gnd.t197 sky130_fd_pr__nfet_01v8 ad=1.155 pd=7.33 as=1.155 ps=7.33 w=7 l=1
X232 a_n1808_13878.t10 a_n1986_13878.t26 a_n1986_13878.t27 vdd.t162 sky130_fd_pr__pfet_01v8 ad=1.485 pd=9.33 as=1.485 ps=9.33 w=9 l=0.5
X233 a_n2903_n3924.t31 minus.t19 a_n1986_13878.t0 gnd.t43 sky130_fd_pr__nfet_01v8 ad=1.155 pd=7.33 as=1.155 ps=7.33 w=7 l=0.5
X234 a_n5644_8799.t11 plus.t17 a_n2903_n3924.t7 gnd.t184 sky130_fd_pr__nfet_01v8 ad=1.155 pd=7.33 as=1.155 ps=7.33 w=7 l=0.5
X235 CSoutput.t84 commonsourceibias.t97 gnd.t240 gnd.t239 sky130_fd_pr__nfet_01v8 ad=1.155 pd=7.33 as=1.155 ps=7.33 w=7 l=1
X236 vdd.t142 CSoutput.t137 output.t3 gnd.t5 sky130_fd_pr__nfet_01v8 ad=0.825 pd=5.33 as=0.825 ps=5.33 w=5 l=1
X237 a_n1986_8322.t6 a_n1986_13878.t62 a_n5644_8799.t25 vdd.t167 sky130_fd_pr__pfet_01v8 ad=1.485 pd=9.33 as=1.485 ps=9.33 w=9 l=0.5
X238 diffpairibias.t5 diffpairibias.t4 gnd.t42 gnd.t41 sky130_fd_pr__nfet_01v8 ad=2.73 pd=14.78 as=2.73 ps=14.78 w=7 l=1
X239 a_n5644_8799.t4 plus.t18 a_n2903_n3924.t6 gnd.t38 sky130_fd_pr__nfet_01v8 ad=1.155 pd=7.33 as=1.155 ps=7.33 w=7 l=0.5
X240 a_n2903_n3924.t30 minus.t20 a_n1986_13878.t2 gnd.t171 sky130_fd_pr__nfet_01v8 ad=1.155 pd=7.33 as=1.155 ps=7.33 w=7 l=0.5
X241 gnd.t78 gnd.t75 gnd.t77 gnd.t76 sky130_fd_pr__nfet_01v8 ad=2.73 pd=14.78 as=0 ps=0 w=7 l=1
X242 CSoutput.t97 commonsourceibias.t98 gnd.t238 gnd.t237 sky130_fd_pr__nfet_01v8 ad=1.155 pd=7.33 as=2.73 ps=14.78 w=7 l=1
X243 CSoutput.t28 a_n5644_8799.t67 vdd.t16 vdd.t15 sky130_fd_pr__pfet_01v8 ad=1.32 pd=8.33 as=3.12 ps=16.78 w=8 l=0.5
X244 a_n1986_8322.t15 a_n1986_13878.t63 vdd.t166 vdd.t165 sky130_fd_pr__pfet_01v8 ad=3.51 pd=18.78 as=1.485 ps=9.33 w=9 l=0.5
X245 a_n2903_n3924.t5 plus.t19 a_n5644_8799.t29 gnd.t313 sky130_fd_pr__nfet_01v8 ad=1.155 pd=7.33 as=1.155 ps=7.33 w=7 l=0.5
X246 gnd.t236 commonsourceibias.t99 CSoutput.t101 gnd.t216 sky130_fd_pr__nfet_01v8 ad=1.155 pd=7.33 as=1.155 ps=7.33 w=7 l=1
X247 gnd.t74 gnd.t72 gnd.t73 gnd.t54 sky130_fd_pr__nfet_01v8 ad=2.73 pd=14.78 as=0 ps=0 w=7 l=1
X248 vdd.t164 a_n1986_13878.t64 a_n1808_13878.t2 vdd.t163 sky130_fd_pr__pfet_01v8 ad=1.485 pd=9.33 as=3.51 ps=18.78 w=9 l=0.5
X249 vdd.t68 vdd.t65 vdd.t67 vdd.t66 sky130_fd_pr__pfet_01v8 ad=3.12 pd=16.78 as=0 ps=0 w=8 l=0.5
X250 gnd.t71 gnd.t68 gnd.t70 gnd.t69 sky130_fd_pr__nfet_01v8 ad=2.73 pd=14.78 as=0 ps=0 w=7 l=0.5
X251 gnd.t235 commonsourceibias.t100 CSoutput.t77 gnd.t193 sky130_fd_pr__nfet_01v8 ad=1.155 pd=7.33 as=1.155 ps=7.33 w=7 l=1
X252 a_n2903_n3924.t29 minus.t21 a_n1986_13878.t8 gnd.t170 sky130_fd_pr__nfet_01v8 ad=1.155 pd=7.33 as=1.155 ps=7.33 w=7 l=0.5