* NGSPICE file created from diffpair.ext - technology: sky130A

.subckt diffpair minus drain_right drain_left source plus
X0 a_n2874_n1488# a_n2874_n1488# a_n2874_n1488# a_n2874_n1488# sky130_fd_pr__nfet_01v8 ad=1.17 pd=6.78 as=9.36 ps=54.24 w=3 l=0.5
X1 drain_right.t23 minus.t0 source.t32 a_n2874_n1488# sky130_fd_pr__nfet_01v8 ad=0.495 pd=3.33 as=0.495 ps=3.33 w=3 l=0.5
X2 drain_right.t22 minus.t1 source.t33 a_n2874_n1488# sky130_fd_pr__nfet_01v8 ad=0.495 pd=3.33 as=0.495 ps=3.33 w=3 l=0.5
X3 source.t43 plus.t0 drain_left.t23 a_n2874_n1488# sky130_fd_pr__nfet_01v8 ad=0.495 pd=3.33 as=0.495 ps=3.33 w=3 l=0.5
X4 drain_left.t22 plus.t1 source.t4 a_n2874_n1488# sky130_fd_pr__nfet_01v8 ad=0.495 pd=3.33 as=1.17 ps=6.78 w=3 l=0.5
X5 source.t11 plus.t2 drain_left.t21 a_n2874_n1488# sky130_fd_pr__nfet_01v8 ad=0.495 pd=3.33 as=0.495 ps=3.33 w=3 l=0.5
X6 source.t15 minus.t2 drain_right.t21 a_n2874_n1488# sky130_fd_pr__nfet_01v8 ad=0.495 pd=3.33 as=0.495 ps=3.33 w=3 l=0.5
X7 drain_right.t20 minus.t3 source.t21 a_n2874_n1488# sky130_fd_pr__nfet_01v8 ad=0.495 pd=3.33 as=1.17 ps=6.78 w=3 l=0.5
X8 source.t16 minus.t4 drain_right.t19 a_n2874_n1488# sky130_fd_pr__nfet_01v8 ad=0.495 pd=3.33 as=0.495 ps=3.33 w=3 l=0.5
X9 source.t3 plus.t3 drain_left.t20 a_n2874_n1488# sky130_fd_pr__nfet_01v8 ad=0.495 pd=3.33 as=0.495 ps=3.33 w=3 l=0.5
X10 drain_left.t19 plus.t4 source.t7 a_n2874_n1488# sky130_fd_pr__nfet_01v8 ad=0.495 pd=3.33 as=0.495 ps=3.33 w=3 l=0.5
X11 source.t5 plus.t5 drain_left.t18 a_n2874_n1488# sky130_fd_pr__nfet_01v8 ad=1.17 pd=6.78 as=0.495 ps=3.33 w=3 l=0.5
X12 source.t22 minus.t5 drain_right.t18 a_n2874_n1488# sky130_fd_pr__nfet_01v8 ad=0.495 pd=3.33 as=0.495 ps=3.33 w=3 l=0.5
X13 source.t30 minus.t6 drain_right.t17 a_n2874_n1488# sky130_fd_pr__nfet_01v8 ad=1.17 pd=6.78 as=0.495 ps=3.33 w=3 l=0.5
X14 drain_right.t16 minus.t7 source.t34 a_n2874_n1488# sky130_fd_pr__nfet_01v8 ad=0.495 pd=3.33 as=0.495 ps=3.33 w=3 l=0.5
X15 drain_right.t15 minus.t8 source.t27 a_n2874_n1488# sky130_fd_pr__nfet_01v8 ad=0.495 pd=3.33 as=0.495 ps=3.33 w=3 l=0.5
X16 drain_left.t17 plus.t6 source.t44 a_n2874_n1488# sky130_fd_pr__nfet_01v8 ad=0.495 pd=3.33 as=1.17 ps=6.78 w=3 l=0.5
X17 drain_right.t14 minus.t9 source.t17 a_n2874_n1488# sky130_fd_pr__nfet_01v8 ad=0.495 pd=3.33 as=0.495 ps=3.33 w=3 l=0.5
X18 drain_left.t16 plus.t7 source.t13 a_n2874_n1488# sky130_fd_pr__nfet_01v8 ad=0.495 pd=3.33 as=0.495 ps=3.33 w=3 l=0.5
X19 source.t29 minus.t10 drain_right.t13 a_n2874_n1488# sky130_fd_pr__nfet_01v8 ad=0.495 pd=3.33 as=0.495 ps=3.33 w=3 l=0.5
X20 drain_left.t15 plus.t8 source.t12 a_n2874_n1488# sky130_fd_pr__nfet_01v8 ad=0.495 pd=3.33 as=0.495 ps=3.33 w=3 l=0.5
X21 drain_right.t12 minus.t11 source.t31 a_n2874_n1488# sky130_fd_pr__nfet_01v8 ad=0.495 pd=3.33 as=0.495 ps=3.33 w=3 l=0.5
X22 drain_right.t11 minus.t12 source.t23 a_n2874_n1488# sky130_fd_pr__nfet_01v8 ad=0.495 pd=3.33 as=0.495 ps=3.33 w=3 l=0.5
X23 source.t46 plus.t9 drain_left.t14 a_n2874_n1488# sky130_fd_pr__nfet_01v8 ad=0.495 pd=3.33 as=0.495 ps=3.33 w=3 l=0.5
X24 source.t47 plus.t10 drain_left.t13 a_n2874_n1488# sky130_fd_pr__nfet_01v8 ad=0.495 pd=3.33 as=0.495 ps=3.33 w=3 l=0.5
X25 source.t14 minus.t13 drain_right.t10 a_n2874_n1488# sky130_fd_pr__nfet_01v8 ad=0.495 pd=3.33 as=0.495 ps=3.33 w=3 l=0.5
X26 source.t25 minus.t14 drain_right.t9 a_n2874_n1488# sky130_fd_pr__nfet_01v8 ad=0.495 pd=3.33 as=0.495 ps=3.33 w=3 l=0.5
X27 source.t6 plus.t11 drain_left.t12 a_n2874_n1488# sky130_fd_pr__nfet_01v8 ad=0.495 pd=3.33 as=0.495 ps=3.33 w=3 l=0.5
X28 source.t37 minus.t15 drain_right.t8 a_n2874_n1488# sky130_fd_pr__nfet_01v8 ad=0.495 pd=3.33 as=0.495 ps=3.33 w=3 l=0.5
X29 source.t35 minus.t16 drain_right.t7 a_n2874_n1488# sky130_fd_pr__nfet_01v8 ad=0.495 pd=3.33 as=0.495 ps=3.33 w=3 l=0.5
X30 source.t0 plus.t12 drain_left.t11 a_n2874_n1488# sky130_fd_pr__nfet_01v8 ad=0.495 pd=3.33 as=0.495 ps=3.33 w=3 l=0.5
X31 drain_left.t10 plus.t13 source.t45 a_n2874_n1488# sky130_fd_pr__nfet_01v8 ad=0.495 pd=3.33 as=0.495 ps=3.33 w=3 l=0.5
X32 drain_left.t9 plus.t14 source.t39 a_n2874_n1488# sky130_fd_pr__nfet_01v8 ad=0.495 pd=3.33 as=0.495 ps=3.33 w=3 l=0.5
X33 drain_right.t6 minus.t17 source.t18 a_n2874_n1488# sky130_fd_pr__nfet_01v8 ad=0.495 pd=3.33 as=1.17 ps=6.78 w=3 l=0.5
X34 drain_right.t5 minus.t18 source.t36 a_n2874_n1488# sky130_fd_pr__nfet_01v8 ad=0.495 pd=3.33 as=0.495 ps=3.33 w=3 l=0.5
X35 a_n2874_n1488# a_n2874_n1488# a_n2874_n1488# a_n2874_n1488# sky130_fd_pr__nfet_01v8 ad=1.17 pd=6.78 as=0 ps=0 w=3 l=0.5
X36 drain_left.t8 plus.t15 source.t42 a_n2874_n1488# sky130_fd_pr__nfet_01v8 ad=0.495 pd=3.33 as=0.495 ps=3.33 w=3 l=0.5
X37 drain_right.t4 minus.t19 source.t19 a_n2874_n1488# sky130_fd_pr__nfet_01v8 ad=0.495 pd=3.33 as=0.495 ps=3.33 w=3 l=0.5
X38 source.t24 minus.t20 drain_right.t3 a_n2874_n1488# sky130_fd_pr__nfet_01v8 ad=0.495 pd=3.33 as=0.495 ps=3.33 w=3 l=0.5
X39 drain_left.t7 plus.t16 source.t9 a_n2874_n1488# sky130_fd_pr__nfet_01v8 ad=0.495 pd=3.33 as=0.495 ps=3.33 w=3 l=0.5
X40 source.t20 minus.t21 drain_right.t2 a_n2874_n1488# sky130_fd_pr__nfet_01v8 ad=0.495 pd=3.33 as=0.495 ps=3.33 w=3 l=0.5
X41 drain_left.t6 plus.t17 source.t38 a_n2874_n1488# sky130_fd_pr__nfet_01v8 ad=0.495 pd=3.33 as=0.495 ps=3.33 w=3 l=0.5
X42 source.t41 plus.t18 drain_left.t5 a_n2874_n1488# sky130_fd_pr__nfet_01v8 ad=1.17 pd=6.78 as=0.495 ps=3.33 w=3 l=0.5
X43 source.t8 plus.t19 drain_left.t4 a_n2874_n1488# sky130_fd_pr__nfet_01v8 ad=0.495 pd=3.33 as=0.495 ps=3.33 w=3 l=0.5
X44 source.t28 minus.t22 drain_right.t1 a_n2874_n1488# sky130_fd_pr__nfet_01v8 ad=1.17 pd=6.78 as=0.495 ps=3.33 w=3 l=0.5
X45 drain_left.t3 plus.t20 source.t10 a_n2874_n1488# sky130_fd_pr__nfet_01v8 ad=0.495 pd=3.33 as=0.495 ps=3.33 w=3 l=0.5
X46 source.t1 plus.t21 drain_left.t2 a_n2874_n1488# sky130_fd_pr__nfet_01v8 ad=0.495 pd=3.33 as=0.495 ps=3.33 w=3 l=0.5
X47 drain_right.t0 minus.t23 source.t26 a_n2874_n1488# sky130_fd_pr__nfet_01v8 ad=0.495 pd=3.33 as=0.495 ps=3.33 w=3 l=0.5
X48 source.t2 plus.t22 drain_left.t1 a_n2874_n1488# sky130_fd_pr__nfet_01v8 ad=0.495 pd=3.33 as=0.495 ps=3.33 w=3 l=0.5
X49 drain_left.t0 plus.t23 source.t40 a_n2874_n1488# sky130_fd_pr__nfet_01v8 ad=0.495 pd=3.33 as=0.495 ps=3.33 w=3 l=0.5
X50 a_n2874_n1488# a_n2874_n1488# a_n2874_n1488# a_n2874_n1488# sky130_fd_pr__nfet_01v8 ad=1.17 pd=6.78 as=0 ps=0 w=3 l=0.5
X51 a_n2874_n1488# a_n2874_n1488# a_n2874_n1488# a_n2874_n1488# sky130_fd_pr__nfet_01v8 ad=1.17 pd=6.78 as=0 ps=0 w=3 l=0.5
R0 minus.n9 minus.t17 249.524
R1 minus.n43 minus.t6 249.524
R2 minus.n8 minus.t4 223.167
R3 minus.n7 minus.t9 223.167
R4 minus.n13 minus.t21 223.167
R5 minus.n5 minus.t7 223.167
R6 minus.n18 minus.t13 223.167
R7 minus.n20 minus.t0 223.167
R8 minus.n3 minus.t15 223.167
R9 minus.n25 minus.t19 223.167
R10 minus.n1 minus.t5 223.167
R11 minus.n30 minus.t18 223.167
R12 minus.n32 minus.t22 223.167
R13 minus.n42 minus.t11 223.167
R14 minus.n41 minus.t2 223.167
R15 minus.n47 minus.t8 223.167
R16 minus.n39 minus.t20 223.167
R17 minus.n52 minus.t12 223.167
R18 minus.n54 minus.t16 223.167
R19 minus.n37 minus.t1 223.167
R20 minus.n59 minus.t14 223.167
R21 minus.n35 minus.t23 223.167
R22 minus.n64 minus.t10 223.167
R23 minus.n66 minus.t3 223.167
R24 minus.n33 minus.n32 161.3
R25 minus.n31 minus.n0 161.3
R26 minus.n30 minus.n29 161.3
R27 minus.n28 minus.n1 161.3
R28 minus.n27 minus.n26 161.3
R29 minus.n25 minus.n2 161.3
R30 minus.n24 minus.n23 161.3
R31 minus.n22 minus.n3 161.3
R32 minus.n21 minus.n20 161.3
R33 minus.n19 minus.n4 161.3
R34 minus.n18 minus.n17 161.3
R35 minus.n16 minus.n5 161.3
R36 minus.n15 minus.n14 161.3
R37 minus.n13 minus.n6 161.3
R38 minus.n12 minus.n11 161.3
R39 minus.n10 minus.n7 161.3
R40 minus.n67 minus.n66 161.3
R41 minus.n65 minus.n34 161.3
R42 minus.n64 minus.n63 161.3
R43 minus.n62 minus.n35 161.3
R44 minus.n61 minus.n60 161.3
R45 minus.n59 minus.n36 161.3
R46 minus.n58 minus.n57 161.3
R47 minus.n56 minus.n37 161.3
R48 minus.n55 minus.n54 161.3
R49 minus.n53 minus.n38 161.3
R50 minus.n52 minus.n51 161.3
R51 minus.n50 minus.n39 161.3
R52 minus.n49 minus.n48 161.3
R53 minus.n47 minus.n40 161.3
R54 minus.n46 minus.n45 161.3
R55 minus.n44 minus.n41 161.3
R56 minus.n8 minus.n7 48.2005
R57 minus.n18 minus.n5 48.2005
R58 minus.n20 minus.n3 48.2005
R59 minus.n30 minus.n1 48.2005
R60 minus.n42 minus.n41 48.2005
R61 minus.n52 minus.n39 48.2005
R62 minus.n54 minus.n37 48.2005
R63 minus.n64 minus.n35 48.2005
R64 minus.n14 minus.n13 47.4702
R65 minus.n25 minus.n24 47.4702
R66 minus.n48 minus.n47 47.4702
R67 minus.n59 minus.n58 47.4702
R68 minus.n32 minus.n31 46.0096
R69 minus.n66 minus.n65 46.0096
R70 minus.n10 minus.n9 45.0871
R71 minus.n44 minus.n43 45.0871
R72 minus.n68 minus.n33 33.2164
R73 minus.n13 minus.n12 25.5611
R74 minus.n26 minus.n25 25.5611
R75 minus.n47 minus.n46 25.5611
R76 minus.n60 minus.n59 25.5611
R77 minus.n20 minus.n19 24.1005
R78 minus.n19 minus.n18 24.1005
R79 minus.n53 minus.n52 24.1005
R80 minus.n54 minus.n53 24.1005
R81 minus.n12 minus.n7 22.6399
R82 minus.n26 minus.n1 22.6399
R83 minus.n46 minus.n41 22.6399
R84 minus.n60 minus.n35 22.6399
R85 minus.n9 minus.n8 14.1472
R86 minus.n43 minus.n42 14.1472
R87 minus.n68 minus.n67 6.52702
R88 minus.n31 minus.n30 2.19141
R89 minus.n65 minus.n64 2.19141
R90 minus.n14 minus.n5 0.730803
R91 minus.n24 minus.n3 0.730803
R92 minus.n48 minus.n39 0.730803
R93 minus.n58 minus.n37 0.730803
R94 minus.n33 minus.n0 0.189894
R95 minus.n29 minus.n0 0.189894
R96 minus.n29 minus.n28 0.189894
R97 minus.n28 minus.n27 0.189894
R98 minus.n27 minus.n2 0.189894
R99 minus.n23 minus.n2 0.189894
R100 minus.n23 minus.n22 0.189894
R101 minus.n22 minus.n21 0.189894
R102 minus.n21 minus.n4 0.189894
R103 minus.n17 minus.n4 0.189894
R104 minus.n17 minus.n16 0.189894
R105 minus.n16 minus.n15 0.189894
R106 minus.n15 minus.n6 0.189894
R107 minus.n11 minus.n6 0.189894
R108 minus.n11 minus.n10 0.189894
R109 minus.n45 minus.n44 0.189894
R110 minus.n45 minus.n40 0.189894
R111 minus.n49 minus.n40 0.189894
R112 minus.n50 minus.n49 0.189894
R113 minus.n51 minus.n50 0.189894
R114 minus.n51 minus.n38 0.189894
R115 minus.n55 minus.n38 0.189894
R116 minus.n56 minus.n55 0.189894
R117 minus.n57 minus.n56 0.189894
R118 minus.n57 minus.n36 0.189894
R119 minus.n61 minus.n36 0.189894
R120 minus.n62 minus.n61 0.189894
R121 minus.n63 minus.n62 0.189894
R122 minus.n63 minus.n34 0.189894
R123 minus.n67 minus.n34 0.189894
R124 minus minus.n68 0.188
R125 source.n0 source.t4 69.6943
R126 source.n11 source.t5 69.6943
R127 source.n12 source.t18 69.6943
R128 source.n23 source.t28 69.6943
R129 source.n47 source.t21 69.6942
R130 source.n36 source.t30 69.6942
R131 source.n35 source.t44 69.6942
R132 source.n24 source.t41 69.6942
R133 source.n2 source.n1 63.0943
R134 source.n4 source.n3 63.0943
R135 source.n6 source.n5 63.0943
R136 source.n8 source.n7 63.0943
R137 source.n10 source.n9 63.0943
R138 source.n14 source.n13 63.0943
R139 source.n16 source.n15 63.0943
R140 source.n18 source.n17 63.0943
R141 source.n20 source.n19 63.0943
R142 source.n22 source.n21 63.0943
R143 source.n46 source.n45 63.0942
R144 source.n44 source.n43 63.0942
R145 source.n42 source.n41 63.0942
R146 source.n40 source.n39 63.0942
R147 source.n38 source.n37 63.0942
R148 source.n34 source.n33 63.0942
R149 source.n32 source.n31 63.0942
R150 source.n30 source.n29 63.0942
R151 source.n28 source.n27 63.0942
R152 source.n26 source.n25 63.0942
R153 source.n24 source.n23 15.1851
R154 source.n48 source.n0 9.56437
R155 source.n45 source.t26 6.6005
R156 source.n45 source.t29 6.6005
R157 source.n43 source.t33 6.6005
R158 source.n43 source.t25 6.6005
R159 source.n41 source.t23 6.6005
R160 source.n41 source.t35 6.6005
R161 source.n39 source.t27 6.6005
R162 source.n39 source.t24 6.6005
R163 source.n37 source.t31 6.6005
R164 source.n37 source.t15 6.6005
R165 source.n33 source.t7 6.6005
R166 source.n33 source.t6 6.6005
R167 source.n31 source.t38 6.6005
R168 source.n31 source.t0 6.6005
R169 source.n29 source.t45 6.6005
R170 source.n29 source.t46 6.6005
R171 source.n27 source.t9 6.6005
R172 source.n27 source.t43 6.6005
R173 source.n25 source.t13 6.6005
R174 source.n25 source.t2 6.6005
R175 source.n1 source.t39 6.6005
R176 source.n1 source.t11 6.6005
R177 source.n3 source.t10 6.6005
R178 source.n3 source.t3 6.6005
R179 source.n5 source.t40 6.6005
R180 source.n5 source.t47 6.6005
R181 source.n7 source.t12 6.6005
R182 source.n7 source.t8 6.6005
R183 source.n9 source.t42 6.6005
R184 source.n9 source.t1 6.6005
R185 source.n13 source.t17 6.6005
R186 source.n13 source.t16 6.6005
R187 source.n15 source.t34 6.6005
R188 source.n15 source.t20 6.6005
R189 source.n17 source.t32 6.6005
R190 source.n17 source.t14 6.6005
R191 source.n19 source.t19 6.6005
R192 source.n19 source.t37 6.6005
R193 source.n21 source.t36 6.6005
R194 source.n21 source.t22 6.6005
R195 source.n48 source.n47 5.62119
R196 source.n23 source.n22 0.716017
R197 source.n22 source.n20 0.716017
R198 source.n20 source.n18 0.716017
R199 source.n18 source.n16 0.716017
R200 source.n16 source.n14 0.716017
R201 source.n14 source.n12 0.716017
R202 source.n11 source.n10 0.716017
R203 source.n10 source.n8 0.716017
R204 source.n8 source.n6 0.716017
R205 source.n6 source.n4 0.716017
R206 source.n4 source.n2 0.716017
R207 source.n2 source.n0 0.716017
R208 source.n26 source.n24 0.716017
R209 source.n28 source.n26 0.716017
R210 source.n30 source.n28 0.716017
R211 source.n32 source.n30 0.716017
R212 source.n34 source.n32 0.716017
R213 source.n35 source.n34 0.716017
R214 source.n38 source.n36 0.716017
R215 source.n40 source.n38 0.716017
R216 source.n42 source.n40 0.716017
R217 source.n44 source.n42 0.716017
R218 source.n46 source.n44 0.716017
R219 source.n47 source.n46 0.716017
R220 source.n12 source.n11 0.470328
R221 source.n36 source.n35 0.470328
R222 source source.n48 0.188
R223 drain_right.n13 drain_right.n11 80.4886
R224 drain_right.n7 drain_right.n5 80.4885
R225 drain_right.n2 drain_right.n0 80.4885
R226 drain_right.n13 drain_right.n12 79.7731
R227 drain_right.n15 drain_right.n14 79.7731
R228 drain_right.n17 drain_right.n16 79.7731
R229 drain_right.n19 drain_right.n18 79.7731
R230 drain_right.n21 drain_right.n20 79.7731
R231 drain_right.n7 drain_right.n6 79.773
R232 drain_right.n9 drain_right.n8 79.773
R233 drain_right.n4 drain_right.n3 79.773
R234 drain_right.n2 drain_right.n1 79.773
R235 drain_right drain_right.n10 26.7931
R236 drain_right.n5 drain_right.t13 6.6005
R237 drain_right.n5 drain_right.t20 6.6005
R238 drain_right.n6 drain_right.t9 6.6005
R239 drain_right.n6 drain_right.t0 6.6005
R240 drain_right.n8 drain_right.t7 6.6005
R241 drain_right.n8 drain_right.t22 6.6005
R242 drain_right.n3 drain_right.t3 6.6005
R243 drain_right.n3 drain_right.t11 6.6005
R244 drain_right.n1 drain_right.t21 6.6005
R245 drain_right.n1 drain_right.t15 6.6005
R246 drain_right.n0 drain_right.t17 6.6005
R247 drain_right.n0 drain_right.t12 6.6005
R248 drain_right.n11 drain_right.t19 6.6005
R249 drain_right.n11 drain_right.t6 6.6005
R250 drain_right.n12 drain_right.t2 6.6005
R251 drain_right.n12 drain_right.t14 6.6005
R252 drain_right.n14 drain_right.t10 6.6005
R253 drain_right.n14 drain_right.t16 6.6005
R254 drain_right.n16 drain_right.t8 6.6005
R255 drain_right.n16 drain_right.t23 6.6005
R256 drain_right.n18 drain_right.t18 6.6005
R257 drain_right.n18 drain_right.t4 6.6005
R258 drain_right.n20 drain_right.t1 6.6005
R259 drain_right.n20 drain_right.t5 6.6005
R260 drain_right drain_right.n21 6.36873
R261 drain_right.n9 drain_right.n7 0.716017
R262 drain_right.n4 drain_right.n2 0.716017
R263 drain_right.n21 drain_right.n19 0.716017
R264 drain_right.n19 drain_right.n17 0.716017
R265 drain_right.n17 drain_right.n15 0.716017
R266 drain_right.n15 drain_right.n13 0.716017
R267 drain_right.n10 drain_right.n9 0.302913
R268 drain_right.n10 drain_right.n4 0.302913
R269 plus.n11 plus.t5 249.524
R270 plus.n45 plus.t6 249.524
R271 plus.n32 plus.t1 223.167
R272 plus.n30 plus.t2 223.167
R273 plus.n29 plus.t14 223.167
R274 plus.n3 plus.t3 223.167
R275 plus.n23 plus.t20 223.167
R276 plus.n22 plus.t10 223.167
R277 plus.n6 plus.t23 223.167
R278 plus.n17 plus.t19 223.167
R279 plus.n15 plus.t8 223.167
R280 plus.n9 plus.t21 223.167
R281 plus.n10 plus.t15 223.167
R282 plus.n66 plus.t18 223.167
R283 plus.n64 plus.t7 223.167
R284 plus.n63 plus.t22 223.167
R285 plus.n37 plus.t16 223.167
R286 plus.n57 plus.t0 223.167
R287 plus.n56 plus.t13 223.167
R288 plus.n40 plus.t9 223.167
R289 plus.n51 plus.t17 223.167
R290 plus.n49 plus.t12 223.167
R291 plus.n43 plus.t4 223.167
R292 plus.n44 plus.t11 223.167
R293 plus.n12 plus.n9 161.3
R294 plus.n14 plus.n13 161.3
R295 plus.n15 plus.n8 161.3
R296 plus.n16 plus.n7 161.3
R297 plus.n18 plus.n17 161.3
R298 plus.n19 plus.n6 161.3
R299 plus.n21 plus.n20 161.3
R300 plus.n22 plus.n5 161.3
R301 plus.n23 plus.n4 161.3
R302 plus.n25 plus.n24 161.3
R303 plus.n26 plus.n3 161.3
R304 plus.n28 plus.n27 161.3
R305 plus.n29 plus.n2 161.3
R306 plus.n30 plus.n1 161.3
R307 plus.n31 plus.n0 161.3
R308 plus.n33 plus.n32 161.3
R309 plus.n46 plus.n43 161.3
R310 plus.n48 plus.n47 161.3
R311 plus.n49 plus.n42 161.3
R312 plus.n50 plus.n41 161.3
R313 plus.n52 plus.n51 161.3
R314 plus.n53 plus.n40 161.3
R315 plus.n55 plus.n54 161.3
R316 plus.n56 plus.n39 161.3
R317 plus.n57 plus.n38 161.3
R318 plus.n59 plus.n58 161.3
R319 plus.n60 plus.n37 161.3
R320 plus.n62 plus.n61 161.3
R321 plus.n63 plus.n36 161.3
R322 plus.n64 plus.n35 161.3
R323 plus.n65 plus.n34 161.3
R324 plus.n67 plus.n66 161.3
R325 plus.n30 plus.n29 48.2005
R326 plus.n23 plus.n22 48.2005
R327 plus.n17 plus.n6 48.2005
R328 plus.n10 plus.n9 48.2005
R329 plus.n64 plus.n63 48.2005
R330 plus.n57 plus.n56 48.2005
R331 plus.n51 plus.n40 48.2005
R332 plus.n44 plus.n43 48.2005
R333 plus.n24 plus.n3 47.4702
R334 plus.n16 plus.n15 47.4702
R335 plus.n58 plus.n37 47.4702
R336 plus.n50 plus.n49 47.4702
R337 plus.n32 plus.n31 46.0096
R338 plus.n66 plus.n65 46.0096
R339 plus.n12 plus.n11 45.0871
R340 plus.n46 plus.n45 45.0871
R341 plus plus.n67 30.5066
R342 plus.n28 plus.n3 25.5611
R343 plus.n15 plus.n14 25.5611
R344 plus.n62 plus.n37 25.5611
R345 plus.n49 plus.n48 25.5611
R346 plus.n21 plus.n6 24.1005
R347 plus.n22 plus.n21 24.1005
R348 plus.n56 plus.n55 24.1005
R349 plus.n55 plus.n40 24.1005
R350 plus.n29 plus.n28 22.6399
R351 plus.n14 plus.n9 22.6399
R352 plus.n63 plus.n62 22.6399
R353 plus.n48 plus.n43 22.6399
R354 plus.n11 plus.n10 14.1472
R355 plus.n45 plus.n44 14.1472
R356 plus plus.n33 8.76186
R357 plus.n31 plus.n30 2.19141
R358 plus.n65 plus.n64 2.19141
R359 plus.n24 plus.n23 0.730803
R360 plus.n17 plus.n16 0.730803
R361 plus.n58 plus.n57 0.730803
R362 plus.n51 plus.n50 0.730803
R363 plus.n13 plus.n12 0.189894
R364 plus.n13 plus.n8 0.189894
R365 plus.n8 plus.n7 0.189894
R366 plus.n18 plus.n7 0.189894
R367 plus.n19 plus.n18 0.189894
R368 plus.n20 plus.n19 0.189894
R369 plus.n20 plus.n5 0.189894
R370 plus.n5 plus.n4 0.189894
R371 plus.n25 plus.n4 0.189894
R372 plus.n26 plus.n25 0.189894
R373 plus.n27 plus.n26 0.189894
R374 plus.n27 plus.n2 0.189894
R375 plus.n2 plus.n1 0.189894
R376 plus.n1 plus.n0 0.189894
R377 plus.n33 plus.n0 0.189894
R378 plus.n67 plus.n34 0.189894
R379 plus.n35 plus.n34 0.189894
R380 plus.n36 plus.n35 0.189894
R381 plus.n61 plus.n36 0.189894
R382 plus.n61 plus.n60 0.189894
R383 plus.n60 plus.n59 0.189894
R384 plus.n59 plus.n38 0.189894
R385 plus.n39 plus.n38 0.189894
R386 plus.n54 plus.n39 0.189894
R387 plus.n54 plus.n53 0.189894
R388 plus.n53 plus.n52 0.189894
R389 plus.n52 plus.n41 0.189894
R390 plus.n42 plus.n41 0.189894
R391 plus.n47 plus.n42 0.189894
R392 plus.n47 plus.n46 0.189894
R393 drain_left.n13 drain_left.n11 80.4886
R394 drain_left.n7 drain_left.n5 80.4885
R395 drain_left.n2 drain_left.n0 80.4885
R396 drain_left.n21 drain_left.n20 79.7731
R397 drain_left.n19 drain_left.n18 79.7731
R398 drain_left.n17 drain_left.n16 79.7731
R399 drain_left.n15 drain_left.n14 79.7731
R400 drain_left.n13 drain_left.n12 79.7731
R401 drain_left.n7 drain_left.n6 79.773
R402 drain_left.n9 drain_left.n8 79.773
R403 drain_left.n4 drain_left.n3 79.773
R404 drain_left.n2 drain_left.n1 79.773
R405 drain_left drain_left.n10 27.3463
R406 drain_left.n5 drain_left.t12 6.6005
R407 drain_left.n5 drain_left.t17 6.6005
R408 drain_left.n6 drain_left.t11 6.6005
R409 drain_left.n6 drain_left.t19 6.6005
R410 drain_left.n8 drain_left.t14 6.6005
R411 drain_left.n8 drain_left.t6 6.6005
R412 drain_left.n3 drain_left.t23 6.6005
R413 drain_left.n3 drain_left.t10 6.6005
R414 drain_left.n1 drain_left.t1 6.6005
R415 drain_left.n1 drain_left.t7 6.6005
R416 drain_left.n0 drain_left.t5 6.6005
R417 drain_left.n0 drain_left.t16 6.6005
R418 drain_left.n20 drain_left.t21 6.6005
R419 drain_left.n20 drain_left.t22 6.6005
R420 drain_left.n18 drain_left.t20 6.6005
R421 drain_left.n18 drain_left.t9 6.6005
R422 drain_left.n16 drain_left.t13 6.6005
R423 drain_left.n16 drain_left.t3 6.6005
R424 drain_left.n14 drain_left.t4 6.6005
R425 drain_left.n14 drain_left.t0 6.6005
R426 drain_left.n12 drain_left.t2 6.6005
R427 drain_left.n12 drain_left.t15 6.6005
R428 drain_left.n11 drain_left.t18 6.6005
R429 drain_left.n11 drain_left.t8 6.6005
R430 drain_left drain_left.n21 6.36873
R431 drain_left.n9 drain_left.n7 0.716017
R432 drain_left.n4 drain_left.n2 0.716017
R433 drain_left.n15 drain_left.n13 0.716017
R434 drain_left.n17 drain_left.n15 0.716017
R435 drain_left.n19 drain_left.n17 0.716017
R436 drain_left.n21 drain_left.n19 0.716017
R437 drain_left.n10 drain_left.n9 0.302913
R438 drain_left.n10 drain_left.n4 0.302913
C0 drain_left drain_right 1.55979f
C1 minus drain_right 3.58784f
C2 source drain_right 11.684299f
C3 plus drain_left 3.87408f
C4 minus plus 5.081779f
C5 plus source 4.14922f
C6 minus drain_left 0.178748f
C7 source drain_left 11.6827f
C8 minus source 4.135221f
C9 plus drain_right 0.449163f
C10 drain_right a_n2874_n1488# 5.69213f
C11 drain_left a_n2874_n1488# 6.11687f
C12 source a_n2874_n1488# 4.092448f
C13 minus a_n2874_n1488# 10.768573f
C14 plus a_n2874_n1488# 12.246151f
C15 drain_left.t5 a_n2874_n1488# 0.069328f
C16 drain_left.t16 a_n2874_n1488# 0.069328f
C17 drain_left.n0 a_n2874_n1488# 0.503369f
C18 drain_left.t1 a_n2874_n1488# 0.069328f
C19 drain_left.t7 a_n2874_n1488# 0.069328f
C20 drain_left.n1 a_n2874_n1488# 0.499984f
C21 drain_left.n2 a_n2874_n1488# 0.746268f
C22 drain_left.t23 a_n2874_n1488# 0.069328f
C23 drain_left.t10 a_n2874_n1488# 0.069328f
C24 drain_left.n3 a_n2874_n1488# 0.499984f
C25 drain_left.n4 a_n2874_n1488# 0.332252f
C26 drain_left.t12 a_n2874_n1488# 0.069328f
C27 drain_left.t17 a_n2874_n1488# 0.069328f
C28 drain_left.n5 a_n2874_n1488# 0.503369f
C29 drain_left.t11 a_n2874_n1488# 0.069328f
C30 drain_left.t19 a_n2874_n1488# 0.069328f
C31 drain_left.n6 a_n2874_n1488# 0.499984f
C32 drain_left.n7 a_n2874_n1488# 0.746268f
C33 drain_left.t14 a_n2874_n1488# 0.069328f
C34 drain_left.t6 a_n2874_n1488# 0.069328f
C35 drain_left.n8 a_n2874_n1488# 0.499984f
C36 drain_left.n9 a_n2874_n1488# 0.332252f
C37 drain_left.n10 a_n2874_n1488# 1.19969f
C38 drain_left.t18 a_n2874_n1488# 0.069328f
C39 drain_left.t8 a_n2874_n1488# 0.069328f
C40 drain_left.n11 a_n2874_n1488# 0.503371f
C41 drain_left.t2 a_n2874_n1488# 0.069328f
C42 drain_left.t15 a_n2874_n1488# 0.069328f
C43 drain_left.n12 a_n2874_n1488# 0.499987f
C44 drain_left.n13 a_n2874_n1488# 0.746264f
C45 drain_left.t4 a_n2874_n1488# 0.069328f
C46 drain_left.t0 a_n2874_n1488# 0.069328f
C47 drain_left.n14 a_n2874_n1488# 0.499987f
C48 drain_left.n15 a_n2874_n1488# 0.368935f
C49 drain_left.t13 a_n2874_n1488# 0.069328f
C50 drain_left.t3 a_n2874_n1488# 0.069328f
C51 drain_left.n16 a_n2874_n1488# 0.499987f
C52 drain_left.n17 a_n2874_n1488# 0.368935f
C53 drain_left.t20 a_n2874_n1488# 0.069328f
C54 drain_left.t9 a_n2874_n1488# 0.069328f
C55 drain_left.n18 a_n2874_n1488# 0.499987f
C56 drain_left.n19 a_n2874_n1488# 0.368935f
C57 drain_left.t21 a_n2874_n1488# 0.069328f
C58 drain_left.t22 a_n2874_n1488# 0.069328f
C59 drain_left.n20 a_n2874_n1488# 0.499987f
C60 drain_left.n21 a_n2874_n1488# 0.620179f
C61 plus.n0 a_n2874_n1488# 0.04563f
C62 plus.t1 a_n2874_n1488# 0.205241f
C63 plus.t2 a_n2874_n1488# 0.205241f
C64 plus.n1 a_n2874_n1488# 0.04563f
C65 plus.t14 a_n2874_n1488# 0.205241f
C66 plus.n2 a_n2874_n1488# 0.04563f
C67 plus.t3 a_n2874_n1488# 0.205241f
C68 plus.n3 a_n2874_n1488# 0.127881f
C69 plus.n4 a_n2874_n1488# 0.04563f
C70 plus.t20 a_n2874_n1488# 0.205241f
C71 plus.t10 a_n2874_n1488# 0.205241f
C72 plus.n5 a_n2874_n1488# 0.04563f
C73 plus.t23 a_n2874_n1488# 0.205241f
C74 plus.n6 a_n2874_n1488# 0.12774f
C75 plus.n7 a_n2874_n1488# 0.04563f
C76 plus.t19 a_n2874_n1488# 0.205241f
C77 plus.t8 a_n2874_n1488# 0.205241f
C78 plus.n8 a_n2874_n1488# 0.04563f
C79 plus.t21 a_n2874_n1488# 0.205241f
C80 plus.n9 a_n2874_n1488# 0.127459f
C81 plus.t15 a_n2874_n1488# 0.205241f
C82 plus.n10 a_n2874_n1488# 0.132858f
C83 plus.t5 a_n2874_n1488# 0.218237f
C84 plus.n11 a_n2874_n1488# 0.111597f
C85 plus.n12 a_n2874_n1488# 0.185276f
C86 plus.n13 a_n2874_n1488# 0.04563f
C87 plus.n14 a_n2874_n1488# 0.010354f
C88 plus.n15 a_n2874_n1488# 0.127881f
C89 plus.n16 a_n2874_n1488# 0.010354f
C90 plus.n17 a_n2874_n1488# 0.123239f
C91 plus.n18 a_n2874_n1488# 0.04563f
C92 plus.n19 a_n2874_n1488# 0.04563f
C93 plus.n20 a_n2874_n1488# 0.04563f
C94 plus.n21 a_n2874_n1488# 0.010354f
C95 plus.n22 a_n2874_n1488# 0.12774f
C96 plus.n23 a_n2874_n1488# 0.123239f
C97 plus.n24 a_n2874_n1488# 0.010354f
C98 plus.n25 a_n2874_n1488# 0.04563f
C99 plus.n26 a_n2874_n1488# 0.04563f
C100 plus.n27 a_n2874_n1488# 0.04563f
C101 plus.n28 a_n2874_n1488# 0.010354f
C102 plus.n29 a_n2874_n1488# 0.127459f
C103 plus.n30 a_n2874_n1488# 0.12352f
C104 plus.n31 a_n2874_n1488# 0.010354f
C105 plus.n32 a_n2874_n1488# 0.122676f
C106 plus.n33 a_n2874_n1488# 0.343902f
C107 plus.n34 a_n2874_n1488# 0.04563f
C108 plus.t18 a_n2874_n1488# 0.205241f
C109 plus.n35 a_n2874_n1488# 0.04563f
C110 plus.t7 a_n2874_n1488# 0.205241f
C111 plus.n36 a_n2874_n1488# 0.04563f
C112 plus.t22 a_n2874_n1488# 0.205241f
C113 plus.t16 a_n2874_n1488# 0.205241f
C114 plus.n37 a_n2874_n1488# 0.127881f
C115 plus.n38 a_n2874_n1488# 0.04563f
C116 plus.t0 a_n2874_n1488# 0.205241f
C117 plus.n39 a_n2874_n1488# 0.04563f
C118 plus.t13 a_n2874_n1488# 0.205241f
C119 plus.t9 a_n2874_n1488# 0.205241f
C120 plus.n40 a_n2874_n1488# 0.12774f
C121 plus.n41 a_n2874_n1488# 0.04563f
C122 plus.t17 a_n2874_n1488# 0.205241f
C123 plus.n42 a_n2874_n1488# 0.04563f
C124 plus.t12 a_n2874_n1488# 0.205241f
C125 plus.t4 a_n2874_n1488# 0.205241f
C126 plus.n43 a_n2874_n1488# 0.127459f
C127 plus.t6 a_n2874_n1488# 0.218237f
C128 plus.t11 a_n2874_n1488# 0.205241f
C129 plus.n44 a_n2874_n1488# 0.132858f
C130 plus.n45 a_n2874_n1488# 0.111597f
C131 plus.n46 a_n2874_n1488# 0.185276f
C132 plus.n47 a_n2874_n1488# 0.04563f
C133 plus.n48 a_n2874_n1488# 0.010354f
C134 plus.n49 a_n2874_n1488# 0.127881f
C135 plus.n50 a_n2874_n1488# 0.010354f
C136 plus.n51 a_n2874_n1488# 0.123239f
C137 plus.n52 a_n2874_n1488# 0.04563f
C138 plus.n53 a_n2874_n1488# 0.04563f
C139 plus.n54 a_n2874_n1488# 0.04563f
C140 plus.n55 a_n2874_n1488# 0.010354f
C141 plus.n56 a_n2874_n1488# 0.12774f
C142 plus.n57 a_n2874_n1488# 0.123239f
C143 plus.n58 a_n2874_n1488# 0.010354f
C144 plus.n59 a_n2874_n1488# 0.04563f
C145 plus.n60 a_n2874_n1488# 0.04563f
C146 plus.n61 a_n2874_n1488# 0.04563f
C147 plus.n62 a_n2874_n1488# 0.010354f
C148 plus.n63 a_n2874_n1488# 0.127459f
C149 plus.n64 a_n2874_n1488# 0.12352f
C150 plus.n65 a_n2874_n1488# 0.010354f
C151 plus.n66 a_n2874_n1488# 0.122676f
C152 plus.n67 a_n2874_n1488# 1.32056f
C153 drain_right.t17 a_n2874_n1488# 0.068497f
C154 drain_right.t12 a_n2874_n1488# 0.068497f
C155 drain_right.n0 a_n2874_n1488# 0.497336f
C156 drain_right.t21 a_n2874_n1488# 0.068497f
C157 drain_right.t15 a_n2874_n1488# 0.068497f
C158 drain_right.n1 a_n2874_n1488# 0.493992f
C159 drain_right.n2 a_n2874_n1488# 0.737324f
C160 drain_right.t3 a_n2874_n1488# 0.068497f
C161 drain_right.t11 a_n2874_n1488# 0.068497f
C162 drain_right.n3 a_n2874_n1488# 0.493992f
C163 drain_right.n4 a_n2874_n1488# 0.32827f
C164 drain_right.t13 a_n2874_n1488# 0.068497f
C165 drain_right.t20 a_n2874_n1488# 0.068497f
C166 drain_right.n5 a_n2874_n1488# 0.497336f
C167 drain_right.t9 a_n2874_n1488# 0.068497f
C168 drain_right.t0 a_n2874_n1488# 0.068497f
C169 drain_right.n6 a_n2874_n1488# 0.493992f
C170 drain_right.n7 a_n2874_n1488# 0.737324f
C171 drain_right.t7 a_n2874_n1488# 0.068497f
C172 drain_right.t22 a_n2874_n1488# 0.068497f
C173 drain_right.n8 a_n2874_n1488# 0.493992f
C174 drain_right.n9 a_n2874_n1488# 0.32827f
C175 drain_right.n10 a_n2874_n1488# 1.12874f
C176 drain_right.t19 a_n2874_n1488# 0.068497f
C177 drain_right.t6 a_n2874_n1488# 0.068497f
C178 drain_right.n11 a_n2874_n1488# 0.497338f
C179 drain_right.t2 a_n2874_n1488# 0.068497f
C180 drain_right.t14 a_n2874_n1488# 0.068497f
C181 drain_right.n12 a_n2874_n1488# 0.493994f
C182 drain_right.n13 a_n2874_n1488# 0.737319f
C183 drain_right.t10 a_n2874_n1488# 0.068497f
C184 drain_right.t16 a_n2874_n1488# 0.068497f
C185 drain_right.n14 a_n2874_n1488# 0.493994f
C186 drain_right.n15 a_n2874_n1488# 0.364513f
C187 drain_right.t8 a_n2874_n1488# 0.068497f
C188 drain_right.t23 a_n2874_n1488# 0.068497f
C189 drain_right.n16 a_n2874_n1488# 0.493994f
C190 drain_right.n17 a_n2874_n1488# 0.364513f
C191 drain_right.t18 a_n2874_n1488# 0.068497f
C192 drain_right.t4 a_n2874_n1488# 0.068497f
C193 drain_right.n18 a_n2874_n1488# 0.493994f
C194 drain_right.n19 a_n2874_n1488# 0.364513f
C195 drain_right.t1 a_n2874_n1488# 0.068497f
C196 drain_right.t5 a_n2874_n1488# 0.068497f
C197 drain_right.n20 a_n2874_n1488# 0.493994f
C198 drain_right.n21 a_n2874_n1488# 0.612746f
C199 source.t4 a_n2874_n1488# 0.602358f
C200 source.n0 a_n2874_n1488# 0.851717f
C201 source.t39 a_n2874_n1488# 0.07254f
C202 source.t11 a_n2874_n1488# 0.07254f
C203 source.n1 a_n2874_n1488# 0.459944f
C204 source.n2 a_n2874_n1488# 0.407647f
C205 source.t10 a_n2874_n1488# 0.07254f
C206 source.t3 a_n2874_n1488# 0.07254f
C207 source.n3 a_n2874_n1488# 0.459944f
C208 source.n4 a_n2874_n1488# 0.407647f
C209 source.t40 a_n2874_n1488# 0.07254f
C210 source.t47 a_n2874_n1488# 0.07254f