* NGSPICE file created from opamp488.ext - technology: sky130A

.subckt opamp488 gnd CSoutput output vdd plus minus commonsourceibias outputibias
+ diffpairibias
X0 a_n2472_13878.t26 a_n2650_13878.t38 a_n2650_13878.t39 vdd.t175 sky130_fd_pr__pfet_01v8 ad=1.485 pd=9.33 as=1.485 ps=9.33 w=9 l=0.5
X1 CSoutput.t70 a_n6972_8799.t44 vdd.t192 vdd.t45 sky130_fd_pr__pfet_01v8 ad=1.32 pd=8.33 as=3.12 ps=16.78 w=8 l=0.5
X2 a_n2472_13878.t3 a_n2650_13878.t64 vdd.t187 vdd.t186 sky130_fd_pr__pfet_01v8 ad=1.485 pd=9.33 as=1.485 ps=9.33 w=9 l=0.5
X3 vdd.t193 a_n6972_8799.t45 CSoutput.t69 vdd.t53 sky130_fd_pr__pfet_01v8 ad=1.32 pd=8.33 as=1.32 ps=8.33 w=8 l=0.5
X4 gnd.t164 gnd.t162 gnd.t163 gnd.t118 sky130_fd_pr__nfet_01v8 ad=2.73 pd=14.78 as=0 ps=0 w=7 l=0.7
X5 a_n6972_8799.t10 plus.t5 a_n3827_n3924.t36 gnd.t227 sky130_fd_pr__nfet_01v8 ad=1.155 pd=7.33 as=1.155 ps=7.33 w=7 l=0.7
X6 vdd.t132 vdd.t130 vdd.t131 vdd.t58 sky130_fd_pr__pfet_01v8 ad=3.12 pd=16.78 as=0 ps=0 w=8 l=0.5
X7 gnd.t161 gnd.t159 minus.t4 gnd.t160 sky130_fd_pr__nfet_01v8 ad=0.165 pd=1.33 as=0.165 ps=1.33 w=1 l=0.5
X8 CSoutput.t68 a_n6972_8799.t46 vdd.t40 vdd.t39 sky130_fd_pr__pfet_01v8 ad=1.32 pd=8.33 as=1.32 ps=8.33 w=8 l=0.5
X9 a_n3827_n3924.t35 plus.t6 a_n6972_8799.t5 gnd.t187 sky130_fd_pr__nfet_01v8 ad=1.155 pd=7.33 as=1.155 ps=7.33 w=7 l=0.7
X10 gnd.t158 gnd.t156 gnd.t157 gnd.t137 sky130_fd_pr__nfet_01v8 ad=2.73 pd=14.78 as=0 ps=0 w=7 l=1
X11 a_n3827_n3924.t7 diffpairibias.t20 gnd.t45 gnd.t44 sky130_fd_pr__nfet_01v8 ad=2.73 pd=14.78 as=2.73 ps=14.78 w=7 l=1
X12 gnd.t203 commonsourceibias.t48 CSoutput.t17 gnd.t169 sky130_fd_pr__nfet_01v8 ad=1.155 pd=7.33 as=1.155 ps=7.33 w=7 l=1
X13 gnd.t155 gnd.t152 gnd.t154 gnd.t153 sky130_fd_pr__nfet_01v8 ad=1.95 pd=10.78 as=0 ps=0 w=5 l=1
X14 commonsourceibias.t47 commonsourceibias.t46 gnd.t215 gnd.t167 sky130_fd_pr__nfet_01v8 ad=1.155 pd=7.33 as=1.155 ps=7.33 w=7 l=1
X15 a_n2650_8322.t19 a_n2650_13878.t65 a_n6972_8799.t22 vdd.t184 sky130_fd_pr__pfet_01v8 ad=1.485 pd=9.33 as=1.485 ps=9.33 w=9 l=0.5
X16 a_n3827_n3924.t53 minus.t5 a_n2650_13878.t21 gnd.t230 sky130_fd_pr__nfet_01v8 ad=1.155 pd=7.33 as=1.155 ps=7.33 w=7 l=0.7
X17 CSoutput.t84 commonsourceibias.t49 gnd.t247 gnd.t30 sky130_fd_pr__nfet_01v8 ad=1.155 pd=7.33 as=1.155 ps=7.33 w=7 l=1
X18 gnd.t151 gnd.t149 gnd.t150 gnd.t77 sky130_fd_pr__nfet_01v8 ad=2.73 pd=14.78 as=0 ps=0 w=7 l=1
X19 vdd.t34 CSoutput.t96 output.t19 gnd.t275 sky130_fd_pr__nfet_01v8 ad=0.825 pd=5.33 as=0.825 ps=5.33 w=5 l=1
X20 CSoutput.t67 a_n6972_8799.t47 vdd.t41 vdd.t10 sky130_fd_pr__pfet_01v8 ad=1.32 pd=8.33 as=1.32 ps=8.33 w=8 l=0.5
X21 vdd.t44 a_n6972_8799.t48 CSoutput.t66 vdd.t4 sky130_fd_pr__pfet_01v8 ad=1.32 pd=8.33 as=1.32 ps=8.33 w=8 l=0.5
X22 gnd.t148 gnd.t146 gnd.t147 gnd.t77 sky130_fd_pr__nfet_01v8 ad=2.73 pd=14.78 as=0 ps=0 w=7 l=1
X23 gnd.t208 commonsourceibias.t44 commonsourceibias.t45 gnd.t207 sky130_fd_pr__nfet_01v8 ad=2.73 pd=14.78 as=1.155 ps=7.33 w=7 l=1
X24 CSoutput.t88 commonsourceibias.t50 gnd.t282 gnd.t223 sky130_fd_pr__nfet_01v8 ad=1.155 pd=7.33 as=1.155 ps=7.33 w=7 l=1
X25 a_n2650_13878.t14 minus.t6 a_n3827_n3924.t46 gnd.t231 sky130_fd_pr__nfet_01v8 ad=1.155 pd=7.33 as=1.155 ps=7.33 w=7 l=0.7
X26 a_n6972_8799.t20 a_n2650_13878.t66 a_n2650_8322.t18 vdd.t173 sky130_fd_pr__pfet_01v8 ad=1.485 pd=9.33 as=1.485 ps=9.33 w=9 l=0.5
X27 commonsourceibias.t43 commonsourceibias.t42 gnd.t294 gnd.t223 sky130_fd_pr__nfet_01v8 ad=1.155 pd=7.33 as=1.155 ps=7.33 w=7 l=1
X28 CSoutput.t1 commonsourceibias.t51 gnd.t4 gnd.t3 sky130_fd_pr__nfet_01v8 ad=1.155 pd=7.33 as=1.155 ps=7.33 w=7 l=1
X29 a_n2650_13878.t2 minus.t7 a_n3827_n3924.t9 gnd.t56 sky130_fd_pr__nfet_01v8 ad=1.155 pd=7.33 as=1.155 ps=7.33 w=7 l=0.7
X30 a_n6972_8799.t23 a_n2650_13878.t67 a_n2650_8322.t17 vdd.t137 sky130_fd_pr__pfet_01v8 ad=1.485 pd=9.33 as=3.51 ps=18.78 w=9 l=0.5
X31 a_n3827_n3924.t37 minus.t8 a_n2650_13878.t5 gnd.t188 sky130_fd_pr__nfet_01v8 ad=2.73 pd=14.78 as=1.155 ps=7.33 w=7 l=0.7
X32 gnd.t145 gnd.t143 gnd.t144 gnd.t137 sky130_fd_pr__nfet_01v8 ad=2.73 pd=14.78 as=0 ps=0 w=7 l=1
X33 CSoutput.t65 a_n6972_8799.t49 vdd.t46 vdd.t45 sky130_fd_pr__pfet_01v8 ad=1.32 pd=8.33 as=3.12 ps=16.78 w=8 l=0.5
X34 vdd.t129 vdd.t127 vdd.t128 vdd.t58 sky130_fd_pr__pfet_01v8 ad=3.12 pd=16.78 as=0 ps=0 w=8 l=0.5
X35 a_n3827_n3924.t2 diffpairibias.t21 gnd.t17 gnd.t16 sky130_fd_pr__nfet_01v8 ad=2.73 pd=14.78 as=2.73 ps=14.78 w=7 l=1
X36 CSoutput.t7 commonsourceibias.t52 gnd.t166 gnd.t6 sky130_fd_pr__nfet_01v8 ad=1.155 pd=7.33 as=1.155 ps=7.33 w=7 l=1
X37 gnd.t286 commonsourceibias.t53 CSoutput.t90 gnd.t248 sky130_fd_pr__nfet_01v8 ad=1.155 pd=7.33 as=1.155 ps=7.33 w=7 l=1
X38 CSoutput.t64 a_n6972_8799.t50 vdd.t200 vdd.t39 sky130_fd_pr__pfet_01v8 ad=1.32 pd=8.33 as=1.32 ps=8.33 w=8 l=0.5
X39 output.t18 CSoutput.t97 vdd.t35 gnd.t274 sky130_fd_pr__nfet_01v8 ad=0.825 pd=5.33 as=0.825 ps=5.33 w=5 l=1
X40 vdd.t126 vdd.t124 vdd.t125 vdd.t74 sky130_fd_pr__pfet_01v8 ad=3.51 pd=18.78 as=0 ps=0 w=9 l=0.5
X41 gnd.t196 commonsourceibias.t54 CSoutput.t14 gnd.t195 sky130_fd_pr__nfet_01v8 ad=1.155 pd=7.33 as=1.155 ps=7.33 w=7 l=1
X42 a_n3827_n3924.t34 plus.t7 a_n6972_8799.t17 gnd.t212 sky130_fd_pr__nfet_01v8 ad=1.155 pd=7.33 as=1.155 ps=7.33 w=7 l=0.7
X43 a_n2472_13878.t25 a_n2650_13878.t34 a_n2650_13878.t35 vdd.t145 sky130_fd_pr__pfet_01v8 ad=1.485 pd=9.33 as=1.485 ps=9.33 w=9 l=0.5
X44 a_n2650_13878.t57 a_n2650_13878.t56 a_n2472_13878.t24 vdd.t156 sky130_fd_pr__pfet_01v8 ad=1.485 pd=9.33 as=1.485 ps=9.33 w=9 l=0.5
X45 a_n6972_8799.t3 plus.t8 a_n3827_n3924.t33 gnd.t49 sky130_fd_pr__nfet_01v8 ad=1.155 pd=7.33 as=2.73 ps=14.78 w=7 l=0.7
X46 CSoutput.t63 a_n6972_8799.t51 vdd.t201 vdd.t10 sky130_fd_pr__pfet_01v8 ad=1.32 pd=8.33 as=1.32 ps=8.33 w=8 l=0.5
X47 gnd.t199 commonsourceibias.t55 CSoutput.t16 gnd.t197 sky130_fd_pr__nfet_01v8 ad=1.155 pd=7.33 as=1.155 ps=7.33 w=7 l=1
X48 a_n6972_8799.t14 plus.t9 a_n3827_n3924.t32 gnd.t165 sky130_fd_pr__nfet_01v8 ad=1.155 pd=7.33 as=1.155 ps=7.33 w=7 l=0.7
X49 vdd.t123 vdd.t121 vdd.t122 vdd.t104 sky130_fd_pr__pfet_01v8 ad=3.51 pd=18.78 as=0 ps=0 w=9 l=0.5
X50 vdd.t194 a_n6972_8799.t52 CSoutput.t62 vdd.t4 sky130_fd_pr__pfet_01v8 ad=1.32 pd=8.33 as=1.32 ps=8.33 w=8 l=0.5
X51 gnd.t249 commonsourceibias.t40 commonsourceibias.t41 gnd.t248 sky130_fd_pr__nfet_01v8 ad=1.155 pd=7.33 as=1.155 ps=7.33 w=7 l=1
X52 a_n3827_n3924.t31 plus.t10 a_n6972_8799.t7 gnd.t202 sky130_fd_pr__nfet_01v8 ad=1.155 pd=7.33 as=1.155 ps=7.33 w=7 l=0.7
X53 a_n2650_13878.t12 minus.t9 a_n3827_n3924.t44 gnd.t216 sky130_fd_pr__nfet_01v8 ad=1.155 pd=7.33 as=1.155 ps=7.33 w=7 l=0.7
X54 outputibias.t7 outputibias.t6 gnd.t173 gnd.t172 sky130_fd_pr__nfet_01v8 ad=2.34 pd=12.78 as=2.34 ps=12.78 w=6 l=2
X55 diffpairibias.t19 diffpairibias.t18 gnd.t239 gnd.t238 sky130_fd_pr__nfet_01v8 ad=2.73 pd=14.78 as=2.73 ps=14.78 w=7 l=1
X56 a_n2650_13878.t49 a_n2650_13878.t48 a_n2472_13878.t23 vdd.t170 sky130_fd_pr__pfet_01v8 ad=1.485 pd=9.33 as=1.485 ps=9.33 w=9 l=0.5
X57 a_n6972_8799.t21 a_n2650_13878.t68 a_n2650_8322.t16 vdd.t165 sky130_fd_pr__pfet_01v8 ad=1.485 pd=9.33 as=1.485 ps=9.33 w=9 l=0.5
X58 vdd.t195 a_n6972_8799.t53 CSoutput.t61 vdd.t26 sky130_fd_pr__pfet_01v8 ad=1.32 pd=8.33 as=1.32 ps=8.33 w=8 l=0.5
X59 a_n2650_13878.t31 a_n2650_13878.t30 a_n2472_13878.t22 vdd.t185 sky130_fd_pr__pfet_01v8 ad=3.51 pd=18.78 as=1.485 ps=9.33 w=9 l=0.5
X60 CSoutput.t60 a_n6972_8799.t54 vdd.t47 vdd.t2 sky130_fd_pr__pfet_01v8 ad=1.32 pd=8.33 as=1.32 ps=8.33 w=8 l=0.5
X61 gnd.t142 gnd.t140 plus.t4 gnd.t141 sky130_fd_pr__nfet_01v8 ad=0.39 pd=2.78 as=0.165 ps=1.33 w=1 l=0.5
X62 commonsourceibias.t39 commonsourceibias.t38 gnd.t293 gnd.t24 sky130_fd_pr__nfet_01v8 ad=1.155 pd=7.33 as=1.155 ps=7.33 w=7 l=1
X63 a_n6972_8799.t19 a_n2650_13878.t69 a_n2650_8322.t15 vdd.t164 sky130_fd_pr__pfet_01v8 ad=1.485 pd=9.33 as=3.51 ps=18.78 w=9 l=0.5
X64 gnd.t289 commonsourceibias.t36 commonsourceibias.t37 gnd.t205 sky130_fd_pr__nfet_01v8 ad=1.155 pd=7.33 as=1.155 ps=7.33 w=7 l=1
X65 diffpairibias.t17 diffpairibias.t16 gnd.t15 gnd.t14 sky130_fd_pr__nfet_01v8 ad=2.73 pd=14.78 as=2.73 ps=14.78 w=7 l=1
X66 gnd.t139 gnd.t136 gnd.t138 gnd.t137 sky130_fd_pr__nfet_01v8 ad=2.73 pd=14.78 as=0 ps=0 w=7 l=1
X67 CSoutput.t59 a_n6972_8799.t55 vdd.t48 vdd.t30 sky130_fd_pr__pfet_01v8 ad=1.32 pd=8.33 as=3.12 ps=16.78 w=8 l=0.5
X68 CSoutput.t98 a_n2650_8322.t33 sky130_fd_pr__cap_mim_m3_1 l=12 w=12
X69 CSoutput.t5 commonsourceibias.t56 gnd.t31 gnd.t30 sky130_fd_pr__nfet_01v8 ad=1.155 pd=7.33 as=1.155 ps=7.33 w=7 l=1
X70 a_n2650_8322.t14 a_n2650_13878.t70 a_n6972_8799.t34 vdd.t185 sky130_fd_pr__pfet_01v8 ad=3.51 pd=18.78 as=1.485 ps=9.33 w=9 l=0.5
X71 gnd.t284 commonsourceibias.t34 commonsourceibias.t35 gnd.t197 sky130_fd_pr__nfet_01v8 ad=1.155 pd=7.33 as=1.155 ps=7.33 w=7 l=1
X72 vdd.t0 CSoutput.t99 output.t17 gnd.t273 sky130_fd_pr__nfet_01v8 ad=0.825 pd=5.33 as=0.825 ps=5.33 w=5 l=1
X73 CSoutput.t12 commonsourceibias.t57 gnd.t190 gnd.t189 sky130_fd_pr__nfet_01v8 ad=1.155 pd=7.33 as=1.155 ps=7.33 w=7 l=1
X74 gnd.t135 gnd.t133 gnd.t134 gnd.t81 sky130_fd_pr__nfet_01v8 ad=2.73 pd=14.78 as=0 ps=0 w=7 l=0.7
X75 gnd.t132 gnd.t130 plus.t3 gnd.t131 sky130_fd_pr__nfet_01v8 ad=0.165 pd=1.33 as=0.165 ps=1.33 w=1 l=0.5
X76 a_n3827_n3924.t30 plus.t11 a_n6972_8799.t41 gnd.t258 sky130_fd_pr__nfet_01v8 ad=1.155 pd=7.33 as=1.155 ps=7.33 w=7 l=0.7
X77 CSoutput.t100 a_n2650_8322.t32 sky130_fd_pr__cap_mim_m3_1 l=12 w=12
X78 CSoutput.t92 commonsourceibias.t58 gnd.t292 gnd.t3 sky130_fd_pr__nfet_01v8 ad=1.155 pd=7.33 as=1.155 ps=7.33 w=7 l=1
X79 a_n3827_n3924.t5 diffpairibias.t22 gnd.t41 gnd.t40 sky130_fd_pr__nfet_01v8 ad=2.73 pd=14.78 as=2.73 ps=14.78 w=7 l=1
X80 vdd.t202 a_n6972_8799.t56 CSoutput.t58 vdd.t6 sky130_fd_pr__pfet_01v8 ad=3.12 pd=16.78 as=1.32 ps=8.33 w=8 l=0.5
X81 a_n6972_8799.t30 a_n2650_13878.t71 a_n2650_8322.t13 vdd.t174 sky130_fd_pr__pfet_01v8 ad=1.485 pd=9.33 as=1.485 ps=9.33 w=9 l=0.5
X82 a_n2650_13878.t45 a_n2650_13878.t44 a_n2472_13878.t21 vdd.t184 sky130_fd_pr__pfet_01v8 ad=1.485 pd=9.33 as=1.485 ps=9.33 w=9 l=0.5
X83 a_n2650_13878.t37 a_n2650_13878.t36 a_n2472_13878.t20 vdd.t140 sky130_fd_pr__pfet_01v8 ad=3.51 pd=18.78 as=1.485 ps=9.33 w=9 l=0.5
X84 gnd.t242 commonsourceibias.t32 commonsourceibias.t33 gnd.t191 sky130_fd_pr__nfet_01v8 ad=2.73 pd=14.78 as=1.155 ps=7.33 w=7 l=1
X85 gnd.t252 commonsourceibias.t30 commonsourceibias.t31 gnd.t209 sky130_fd_pr__nfet_01v8 ad=1.155 pd=7.33 as=1.155 ps=7.33 w=7 l=1
X86 CSoutput.t57 a_n6972_8799.t57 vdd.t203 vdd.t16 sky130_fd_pr__pfet_01v8 ad=1.32 pd=8.33 as=1.32 ps=8.33 w=8 l=0.5
X87 vdd.t196 a_n6972_8799.t58 CSoutput.t56 vdd.t14 sky130_fd_pr__pfet_01v8 ad=1.32 pd=8.33 as=1.32 ps=8.33 w=8 l=0.5
X88 a_n2650_13878.t17 minus.t10 a_n3827_n3924.t49 gnd.t21 sky130_fd_pr__nfet_01v8 ad=1.155 pd=7.33 as=1.155 ps=7.33 w=7 l=0.7
X89 diffpairibias.t15 diffpairibias.t14 gnd.t53 gnd.t52 sky130_fd_pr__nfet_01v8 ad=2.73 pd=14.78 as=2.73 ps=14.78 w=7 l=1
X90 output.t16 CSoutput.t101 vdd.t1 gnd.t272 sky130_fd_pr__nfet_01v8 ad=0.825 pd=5.33 as=0.825 ps=5.33 w=5 l=1
X91 CSoutput.t55 a_n6972_8799.t59 vdd.t197 vdd.t30 sky130_fd_pr__pfet_01v8 ad=1.32 pd=8.33 as=3.12 ps=16.78 w=8 l=0.5
X92 vdd.t120 vdd.t118 vdd.t119 vdd.t108 sky130_fd_pr__pfet_01v8 ad=3.51 pd=18.78 as=0 ps=0 w=9 l=0.5
X93 vdd.t117 vdd.t114 vdd.t116 vdd.t115 sky130_fd_pr__pfet_01v8 ad=3.51 pd=18.78 as=0 ps=0 w=9 l=0.5
X94 gnd.t241 commonsourceibias.t59 CSoutput.t81 gnd.t195 sky130_fd_pr__nfet_01v8 ad=1.155 pd=7.33 as=1.155 ps=7.33 w=7 l=1
X95 gnd.t206 commonsourceibias.t60 CSoutput.t19 gnd.t205 sky130_fd_pr__nfet_01v8 ad=1.155 pd=7.33 as=1.155 ps=7.33 w=7 l=1
X96 a_n3827_n3924.t41 minus.t11 a_n2650_13878.t9 gnd.t228 sky130_fd_pr__nfet_01v8 ad=1.155 pd=7.33 as=1.155 ps=7.33 w=7 l=0.7
X97 output.t15 CSoutput.t102 vdd.t133 gnd.t271 sky130_fd_pr__nfet_01v8 ad=1.95 pd=10.78 as=0.825 ps=5.33 w=5 l=1
X98 vdd.t113 vdd.t111 vdd.t112 vdd.t91 sky130_fd_pr__pfet_01v8 ad=3.12 pd=16.78 as=0 ps=0 w=8 l=0.5
X99 a_n2650_8322.t27 a_n2650_13878.t72 vdd.t183 vdd.t182 sky130_fd_pr__pfet_01v8 ad=1.485 pd=9.33 as=1.485 ps=9.33 w=9 l=0.5
X100 vdd.t181 a_n2650_13878.t73 a_n2650_8322.t26 vdd.t180 sky130_fd_pr__pfet_01v8 ad=1.485 pd=9.33 as=1.485 ps=9.33 w=9 l=0.5
X101 a_n2650_13878.t61 a_n2650_13878.t60 a_n2472_13878.t19 vdd.t148 sky130_fd_pr__pfet_01v8 ad=1.485 pd=9.33 as=1.485 ps=9.33 w=9 l=0.5
X102 gnd.t214 commonsourceibias.t61 CSoutput.t22 gnd.t207 sky130_fd_pr__nfet_01v8 ad=2.73 pd=14.78 as=1.155 ps=7.33 w=7 l=1
X103 gnd.t129 gnd.t127 gnd.t128 gnd.t88 sky130_fd_pr__nfet_01v8 ad=2.73 pd=14.78 as=0 ps=0 w=7 l=1
X104 vdd.t134 CSoutput.t103 output.t14 gnd.t270 sky130_fd_pr__nfet_01v8 ad=0.825 pd=5.33 as=0.825 ps=5.33 w=5 l=1
X105 a_n3827_n3924.t4 diffpairibias.t23 gnd.t39 gnd.t38 sky130_fd_pr__nfet_01v8 ad=2.73 pd=14.78 as=2.73 ps=14.78 w=7 l=1
X106 a_n3827_n3924.t48 minus.t12 a_n2650_13878.t16 gnd.t240 sky130_fd_pr__nfet_01v8 ad=2.73 pd=14.78 as=1.155 ps=7.33 w=7 l=0.7
X107 a_n3827_n3924.t54 minus.t13 a_n2650_13878.t22 gnd.t259 sky130_fd_pr__nfet_01v8 ad=1.155 pd=7.33 as=1.155 ps=7.33 w=7 l=0.7
X108 vdd.t179 a_n2650_13878.t74 a_n2472_13878.t4 vdd.t178 sky130_fd_pr__pfet_01v8 ad=1.485 pd=9.33 as=1.485 ps=9.33 w=9 l=0.5
X109 a_n2650_13878.t0 minus.t14 a_n3827_n3924.t0 gnd.t12 sky130_fd_pr__nfet_01v8 ad=1.155 pd=7.33 as=1.155 ps=7.33 w=7 l=0.7
X110 vdd.t110 vdd.t107 vdd.t109 vdd.t108 sky130_fd_pr__pfet_01v8 ad=3.51 pd=18.78 as=0 ps=0 w=9 l=0.5
X111 a_n3827_n3924.t29 plus.t12 a_n6972_8799.t43 gnd.t229 sky130_fd_pr__nfet_01v8 ad=1.155 pd=7.33 as=1.155 ps=7.33 w=7 l=0.7
X112 a_n3827_n3924.t28 plus.t13 a_n6972_8799.t38 gnd.t13 sky130_fd_pr__nfet_01v8 ad=1.155 pd=7.33 as=1.155 ps=7.33 w=7 l=0.7
X113 a_n2650_13878.t8 minus.t15 a_n3827_n3924.t40 gnd.t0 sky130_fd_pr__nfet_01v8 ad=1.155 pd=7.33 as=1.155 ps=7.33 w=7 l=0.7
X114 gnd.t126 gnd.t124 plus.t2 gnd.t125 sky130_fd_pr__nfet_01v8 ad=0.165 pd=1.33 as=0.39 ps=2.78 w=1 l=0.5
X115 a_n6972_8799.t1 plus.t14 a_n3827_n3924.t27 gnd.t18 sky130_fd_pr__nfet_01v8 ad=1.155 pd=7.33 as=1.155 ps=7.33 w=7 l=0.7
X116 gnd.t123 gnd.t121 gnd.t122 gnd.t61 sky130_fd_pr__nfet_01v8 ad=2.73 pd=14.78 as=0 ps=0 w=7 l=1
X117 a_n6972_8799.t37 a_n2650_13878.t75 a_n2650_8322.t12 vdd.t146 sky130_fd_pr__pfet_01v8 ad=1.485 pd=9.33 as=1.485 ps=9.33 w=9 l=0.5
X118 a_n2650_8322.t25 a_n2650_13878.t76 vdd.t177 vdd.t176 sky130_fd_pr__pfet_01v8 ad=3.51 pd=18.78 as=1.485 ps=9.33 w=9 l=0.5
X119 vdd.t106 vdd.t103 vdd.t105 vdd.t104 sky130_fd_pr__pfet_01v8 ad=3.51 pd=18.78 as=0 ps=0 w=9 l=0.5
X120 a_n6972_8799.t13 plus.t15 a_n3827_n3924.t26 gnd.t237 sky130_fd_pr__nfet_01v8 ad=1.155 pd=7.33 as=2.73 ps=14.78 w=7 l=0.7
X121 vdd.t15 a_n6972_8799.t60 CSoutput.t54 vdd.t14 sky130_fd_pr__pfet_01v8 ad=1.32 pd=8.33 as=1.32 ps=8.33 w=8 l=0.5
X122 a_n2650_13878.t43 a_n2650_13878.t42 a_n2472_13878.t18 vdd.t161 sky130_fd_pr__pfet_01v8 ad=1.485 pd=9.33 as=1.485 ps=9.33 w=9 l=0.5
X123 a_n2650_13878.t4 minus.t16 a_n3827_n3924.t12 gnd.t176 sky130_fd_pr__nfet_01v8 ad=1.155 pd=7.33 as=1.155 ps=7.33 w=7 l=0.7
X124 vdd.t135 CSoutput.t104 output.t13 gnd.t269 sky130_fd_pr__nfet_01v8 ad=0.825 pd=5.33 as=1.95 ps=10.78 w=5 l=1
X125 diffpairibias.t13 diffpairibias.t12 gnd.t180 gnd.t179 sky130_fd_pr__nfet_01v8 ad=2.73 pd=14.78 as=2.73 ps=14.78 w=7 l=1
X126 CSoutput.t53 a_n6972_8799.t61 vdd.t17 vdd.t16 sky130_fd_pr__pfet_01v8 ad=1.32 pd=8.33 as=1.32 ps=8.33 w=8 l=0.5
X127 a_n6972_8799.t33 a_n2650_13878.t77 a_n2650_8322.t11 vdd.t175 sky130_fd_pr__pfet_01v8 ad=1.485 pd=9.33 as=1.485 ps=9.33 w=9 l=0.5
X128 a_n2472_13878.t17 a_n2650_13878.t58 a_n2650_13878.t59 vdd.t174 sky130_fd_pr__pfet_01v8 ad=1.485 pd=9.33 as=1.485 ps=9.33 w=9 l=0.5
X129 CSoutput.t76 commonsourceibias.t62 gnd.t232 gnd.t189 sky130_fd_pr__nfet_01v8 ad=1.155 pd=7.33 as=1.155 ps=7.33 w=7 l=1
X130 commonsourceibias.t29 commonsourceibias.t28 gnd.t181 gnd.t30 sky130_fd_pr__nfet_01v8 ad=1.155 pd=7.33 as=1.155 ps=7.33 w=7 l=1
X131 a_n3827_n3924.t39 minus.t17 a_n2650_13878.t7 gnd.t219 sky130_fd_pr__nfet_01v8 ad=1.155 pd=7.33 as=1.155 ps=7.33 w=7 l=0.7
X132 vdd.t20 CSoutput.t105 output.t12 gnd.t268 sky130_fd_pr__nfet_01v8 ad=0.825 pd=5.33 as=0.825 ps=5.33 w=5 l=1
X133 CSoutput.t91 commonsourceibias.t63 gnd.t288 gnd.t200 sky130_fd_pr__nfet_01v8 ad=1.155 pd=7.33 as=2.73 ps=14.78 w=7 l=1
X134 a_n2472_13878.t16 a_n2650_13878.t54 a_n2650_13878.t55 vdd.t173 sky130_fd_pr__pfet_01v8 ad=1.485 pd=9.33 as=1.485 ps=9.33 w=9 l=0.5
X135 CSoutput.t52 a_n6972_8799.t62 vdd.t204 vdd.t2 sky130_fd_pr__pfet_01v8 ad=1.32 pd=8.33 as=1.32 ps=8.33 w=8 l=0.5
X136 vdd.t172 a_n2650_13878.t78 a_n2650_8322.t24 vdd.t171 sky130_fd_pr__pfet_01v8 ad=1.485 pd=9.33 as=3.51 ps=18.78 w=9 l=0.5
X137 gnd.t233 commonsourceibias.t64 CSoutput.t77 gnd.t32 sky130_fd_pr__nfet_01v8 ad=1.155 pd=7.33 as=1.155 ps=7.33 w=7 l=1
X138 gnd.t120 gnd.t117 gnd.t119 gnd.t118 sky130_fd_pr__nfet_01v8 ad=2.73 pd=14.78 as=0 ps=0 w=7 l=0.7
X139 gnd.t29 commonsourceibias.t26 commonsourceibias.t27 gnd.t28 sky130_fd_pr__nfet_01v8 ad=1.155 pd=7.33 as=1.155 ps=7.33 w=7 l=1
X140 a_n2650_13878.t51 a_n2650_13878.t50 a_n2472_13878.t15 vdd.t143 sky130_fd_pr__pfet_01v8 ad=1.485 pd=9.33 as=1.485 ps=9.33 w=9 l=0.5
X141 vdd.t205 a_n6972_8799.t63 CSoutput.t51 vdd.t53 sky130_fd_pr__pfet_01v8 ad=1.32 pd=8.33 as=1.32 ps=8.33 w=8 l=0.5
X142 vdd.t102 vdd.t100 vdd.t101 vdd.t91 sky130_fd_pr__pfet_01v8 ad=3.12 pd=16.78 as=0 ps=0 w=8 l=0.5
X143 commonsourceibias.t25 commonsourceibias.t24 gnd.t217 gnd.t22 sky130_fd_pr__nfet_01v8 ad=1.155 pd=7.33 as=1.155 ps=7.33 w=7 l=1
X144 minus.t3 gnd.t114 gnd.t116 gnd.t115 sky130_fd_pr__nfet_01v8 ad=0.165 pd=1.33 as=0.165 ps=1.33 w=1 l=0.5
X145 a_n3827_n3924.t25 plus.t16 a_n6972_8799.t11 gnd.t230 sky130_fd_pr__nfet_01v8 ad=1.155 pd=7.33 as=1.155 ps=7.33 w=7 l=0.7
X146 gnd.t46 commonsourceibias.t22 commonsourceibias.t23 gnd.t32 sky130_fd_pr__nfet_01v8 ad=1.155 pd=7.33 as=1.155 ps=7.33 w=7 l=1
X147 a_n3827_n3924.t3 diffpairibias.t24 gnd.t37 gnd.t36 sky130_fd_pr__nfet_01v8 ad=2.73 pd=14.78 as=2.73 ps=14.78 w=7 l=1
X148 commonsourceibias.t21 commonsourceibias.t20 gnd.t283 gnd.t3 sky130_fd_pr__nfet_01v8 ad=1.155 pd=7.33 as=1.155 ps=7.33 w=7 l=1
X149 gnd.t2 commonsourceibias.t65 CSoutput.t0 gnd.t1 sky130_fd_pr__nfet_01v8 ad=1.155 pd=7.33 as=1.155 ps=7.33 w=7 l=1
X150 a_n3827_n3924.t11 diffpairibias.t25 gnd.t175 gnd.t174 sky130_fd_pr__nfet_01v8 ad=2.73 pd=14.78 as=2.73 ps=14.78 w=7 l=1
X151 a_n6972_8799.t12 plus.t17 a_n3827_n3924.t24 gnd.t231 sky130_fd_pr__nfet_01v8 ad=1.155 pd=7.33 as=1.155 ps=7.33 w=7 l=0.7
X152 gnd.t244 commonsourceibias.t66 CSoutput.t83 gnd.t205 sky130_fd_pr__nfet_01v8 ad=1.155 pd=7.33 as=1.155 ps=7.33 w=7 l=1
X153 a_n2472_13878.t14 a_n2650_13878.t46 a_n2650_13878.t47 vdd.t147 sky130_fd_pr__pfet_01v8 ad=1.485 pd=9.33 as=1.485 ps=9.33 w=9 l=0.5
X154 gnd.t211 commonsourceibias.t67 CSoutput.t21 gnd.t207 sky130_fd_pr__nfet_01v8 ad=2.73 pd=14.78 as=1.155 ps=7.33 w=7 l=1
X155 vdd.t99 vdd.t97 vdd.t98 vdd.t70 sky130_fd_pr__pfet_01v8 ad=3.51 pd=18.78 as=0 ps=0 w=9 l=0.5
X156 a_n2650_8322.t10 a_n2650_13878.t79 a_n6972_8799.t32 vdd.t170 sky130_fd_pr__pfet_01v8 ad=1.485 pd=9.33 as=1.485 ps=9.33 w=9 l=0.5
X157 commonsourceibias.t19 commonsourceibias.t18 gnd.t184 gnd.t182 sky130_fd_pr__nfet_01v8 ad=1.155 pd=7.33 as=1.155 ps=7.33 w=7 l=1
X158 CSoutput.t50 a_n6972_8799.t64 vdd.t52 vdd.t45 sky130_fd_pr__pfet_01v8 ad=1.32 pd=8.33 as=3.12 ps=16.78 w=8 l=0.5
X159 gnd.t295 commonsourceibias.t68 CSoutput.t93 gnd.t250 sky130_fd_pr__nfet_01v8 ad=1.155 pd=7.33 as=1.155 ps=7.33 w=7 l=1
X160 gnd.t113 gnd.t110 gnd.t112 gnd.t111 sky130_fd_pr__nfet_01v8 ad=1.95 pd=10.78 as=0 ps=0 w=5 l=1
X161 a_n2472_13878.t6 a_n2650_13878.t80 vdd.t169 vdd.t168 sky130_fd_pr__pfet_01v8 ad=1.485 pd=9.33 as=1.485 ps=9.33 w=9 l=0.5
X162 CSoutput.t80 commonsourceibias.t69 gnd.t236 gnd.t220 sky130_fd_pr__nfet_01v8 ad=1.155 pd=7.33 as=1.155 ps=7.33 w=7 l=1
X163 diffpairibias.t11 diffpairibias.t10 gnd.t178 gnd.t177 sky130_fd_pr__nfet_01v8 ad=2.73 pd=14.78 as=2.73 ps=14.78 w=7 l=1
X164 vdd.t167 a_n2650_13878.t81 a_n2472_13878.t5 vdd.t166 sky130_fd_pr__pfet_01v8 ad=1.485 pd=9.33 as=1.485 ps=9.33 w=9 l=0.5
X165 vdd.t54 a_n6972_8799.t65 CSoutput.t49 vdd.t53 sky130_fd_pr__pfet_01v8 ad=1.32 pd=8.33 as=1.32 ps=8.33 w=8 l=0.5
X166 CSoutput.t48 a_n6972_8799.t66 vdd.t3 vdd.t2 sky130_fd_pr__pfet_01v8 ad=1.32 pd=8.33 as=1.32 ps=8.33 w=8 l=0.5
X167 gnd.t5 commonsourceibias.t16 commonsourceibias.t17 gnd.t1 sky130_fd_pr__nfet_01v8 ad=1.155 pd=7.33 as=1.155 ps=7.33 w=7 l=1
X168 commonsourceibias.t15 commonsourceibias.t14 gnd.t201 gnd.t200 sky130_fd_pr__nfet_01v8 ad=1.155 pd=7.33 as=2.73 ps=14.78 w=7 l=1
X169 a_n2472_13878.t13 a_n2650_13878.t24 a_n2650_13878.t25 vdd.t165 sky130_fd_pr__pfet_01v8 ad=1.485 pd=9.33 as=1.485 ps=9.33 w=9 l=0.5
X170 plus.t1 gnd.t107 gnd.t109 gnd.t108 sky130_fd_pr__nfet_01v8 ad=0.165 pd=1.33 as=0.165 ps=1.33 w=1 l=0.5
X171 output.t3 outputibias.t8 gnd.t194 gnd.t193 sky130_fd_pr__nfet_01v8 ad=2.34 pd=12.78 as=2.34 ps=12.78 w=6 l=2
X172 diffpairibias.t9 diffpairibias.t8 gnd.t281 gnd.t280 sky130_fd_pr__nfet_01v8 ad=2.73 pd=14.78 as=2.73 ps=14.78 w=7 l=1
X173 a_n3827_n3924.t38 minus.t18 a_n2650_13878.t6 gnd.t212 sky130_fd_pr__nfet_01v8 ad=1.155 pd=7.33 as=1.155 ps=7.33 w=7 l=0.7
X174 CSoutput.t106 a_n2650_8322.t31 sky130_fd_pr__cap_mim_m3_1 l=12 w=12
X175 a_n2650_8322.t9 a_n2650_13878.t82 a_n6972_8799.t35 vdd.t136 sky130_fd_pr__pfet_01v8 ad=1.485 pd=9.33 as=1.485 ps=9.33 w=9 l=0.5
X176 a_n2650_13878.t13 minus.t19 a_n3827_n3924.t45 gnd.t49 sky130_fd_pr__nfet_01v8 ad=1.155 pd=7.33 as=2.73 ps=14.78 w=7 l=0.7
X177 CSoutput.t75 commonsourceibias.t70 gnd.t226 gnd.t225 sky130_fd_pr__nfet_01v8 ad=1.155 pd=7.33 as=2.73 ps=14.78 w=7 l=1
X178 output.t2 outputibias.t9 gnd.t186 gnd.t185 sky130_fd_pr__nfet_01v8 ad=2.34 pd=12.78 as=2.34 ps=12.78 w=6 l=2
X179 output.t0 outputibias.t10 gnd.t9 gnd.t8 sky130_fd_pr__nfet_01v8 ad=2.34 pd=12.78 as=2.34 ps=12.78 w=6 l=2
X180 gnd.t291 commonsourceibias.t12 commonsourceibias.t13 gnd.t195 sky130_fd_pr__nfet_01v8 ad=1.155 pd=7.33 as=1.155 ps=7.33 w=7 l=1
X181 a_n2472_13878.t12 a_n2650_13878.t62 a_n2650_13878.t63 vdd.t164 sky130_fd_pr__pfet_01v8 ad=1.485 pd=9.33 as=3.51 ps=18.78 w=9 l=0.5
X182 vdd.t5 a_n6972_8799.t67 CSoutput.t47 vdd.t4 sky130_fd_pr__pfet_01v8 ad=1.32 pd=8.33 as=1.32 ps=8.33 w=8 l=0.5
X183 CSoutput.t46 a_n6972_8799.t68 vdd.t188 vdd.t37 sky130_fd_pr__pfet_01v8 ad=1.32 pd=8.33 as=1.32 ps=8.33 w=8 l=0.5
X184 a_n2650_13878.t3 minus.t20 a_n3827_n3924.t10 gnd.t165 sky130_fd_pr__nfet_01v8 ad=1.155 pd=7.33 as=1.155 ps=7.33 w=7 l=0.7
X185 diffpairibias.t7 diffpairibias.t6 gnd.t11 gnd.t10 sky130_fd_pr__nfet_01v8 ad=2.73 pd=14.78 as=2.73 ps=14.78 w=7 l=1
X186 vdd.t160 a_n2650_13878.t83 a_n2650_8322.t23 vdd.t159 sky130_fd_pr__pfet_01v8 ad=1.485 pd=9.33 as=3.51 ps=18.78 w=9 l=0.5
X187 a_n2650_13878.t15 minus.t21 a_n3827_n3924.t47 gnd.t227 sky130_fd_pr__nfet_01v8 ad=1.155 pd=7.33 as=1.155 ps=7.33 w=7 l=0.7
X188 CSoutput.t82 commonsourceibias.t71 gnd.t243 gnd.t200 sky130_fd_pr__nfet_01v8 ad=1.155 pd=7.33 as=2.73 ps=14.78 w=7 l=1
X189 a_n3827_n3924.t43 minus.t22 a_n2650_13878.t11 gnd.t202 sky130_fd_pr__nfet_01v8 ad=1.155 pd=7.33 as=1.155 ps=7.33 w=7 l=0.7
X190 a_n6972_8799.t8 plus.t18 a_n3827_n3924.t23 gnd.t216 sky130_fd_pr__nfet_01v8 ad=1.155 pd=7.33 as=1.155 ps=7.33 w=7 l=0.7
X191 CSoutput.t107 a_n2650_8322.t30 sky130_fd_pr__cap_mim_m3_1 l=12 w=12
X192 output.t1 outputibias.t11 gnd.t27 gnd.t26 sky130_fd_pr__nfet_01v8 ad=2.34 pd=12.78 as=2.34 ps=12.78 w=6 l=2
X193 gnd.t33 commonsourceibias.t72 CSoutput.t6 gnd.t32 sky130_fd_pr__nfet_01v8 ad=1.155 pd=7.33 as=1.155 ps=7.33 w=7 l=1
X194 a_n3827_n3924.t51 minus.t23 a_n2650_13878.t19 gnd.t187 sky130_fd_pr__nfet_01v8 ad=1.155 pd=7.33 as=1.155 ps=7.33 w=7 l=0.7
X195 a_n2472_13878.t27 a_n2650_13878.t84 vdd.t163 vdd.t162 sky130_fd_pr__pfet_01v8 ad=3.51 pd=18.78 as=1.485 ps=9.33 w=9 l=0.5
X196 CSoutput.t18 commonsourceibias.t73 gnd.t204 gnd.t167 sky130_fd_pr__nfet_01v8 ad=1.155 pd=7.33 as=1.155 ps=7.33 w=7 l=1
X197 gnd.t106 gnd.t103 gnd.t105 gnd.t104 sky130_fd_pr__nfet_01v8 ad=2.73 pd=14.78 as=0 ps=0 w=7 l=1
X198 vdd.t189 a_n6972_8799.t69 CSoutput.t45 vdd.t6 sky130_fd_pr__pfet_01v8 ad=3.12 pd=16.78 as=1.32 ps=8.33 w=8 l=0.5
X199 gnd.t102 gnd.t100 minus.t2 gnd.t101 sky130_fd_pr__nfet_01v8 ad=0.165 pd=1.33 as=0.39 ps=2.78 w=1 l=0.5
X200 gnd.t99 gnd.t97 gnd.t98 gnd.t88 sky130_fd_pr__nfet_01v8 ad=2.73 pd=14.78 as=0 ps=0 w=7 l=1
X201 a_n2650_8322.t8 a_n2650_13878.t85 a_n6972_8799.t36 vdd.t161 sky130_fd_pr__pfet_01v8 ad=1.485 pd=9.33 as=1.485 ps=9.33 w=9 l=0.5
X202 vdd.t158 a_n2650_13878.t86 a_n2650_8322.t22 vdd.t157 sky130_fd_pr__pfet_01v8 ad=1.485 pd=9.33 as=1.485 ps=9.33 w=9 l=0.5
X203 a_n3827_n3924.t56 diffpairibias.t26 gnd.t277 gnd.t276 sky130_fd_pr__nfet_01v8 ad=2.73 pd=14.78 as=2.73 ps=14.78 w=7 l=1
X204 CSoutput.t44 a_n6972_8799.t70 vdd.t42 vdd.t8 sky130_fd_pr__pfet_01v8 ad=1.32 pd=8.33 as=1.32 ps=8.33 w=8 l=0.5
X205 vdd.t96 vdd.t94 vdd.t95 vdd.t62 sky130_fd_pr__pfet_01v8 ad=3.12 pd=16.78 as=0 ps=0 w=8 l=0.5
X206 vdd.t93 vdd.t90 vdd.t92 vdd.t91 sky130_fd_pr__pfet_01v8 ad=3.12 pd=16.78 as=0 ps=0 w=8 l=0.5
X207 gnd.t171 commonsourceibias.t74 CSoutput.t10 gnd.t1 sky130_fd_pr__nfet_01v8 ad=1.155 pd=7.33 as=1.155 ps=7.33 w=7 l=1
X208 vdd.t43 a_n6972_8799.t71 CSoutput.t43 vdd.t12 sky130_fd_pr__pfet_01v8 ad=1.32 pd=8.33 as=1.32 ps=8.33 w=8 l=0.5
X209 vdd.t36 a_n6972_8799.t72 CSoutput.t42 vdd.t24 sky130_fd_pr__pfet_01v8 ad=1.32 pd=8.33 as=1.32 ps=8.33 w=8 l=0.5
X210 vdd.t89 vdd.t87 vdd.t88 vdd.t66 sky130_fd_pr__pfet_01v8 ad=3.12 pd=16.78 as=0 ps=0 w=8 l=0.5
X211 output.t11 CSoutput.t108 vdd.t49 gnd.t267 sky130_fd_pr__nfet_01v8 ad=0.825 pd=5.33 as=0.825 ps=5.33 w=5 l=1
X212 a_n6972_8799.t6 plus.t19 a_n3827_n3924.t22 gnd.t56 sky130_fd_pr__nfet_01v8 ad=1.155 pd=7.33 as=1.155 ps=7.33 w=7 l=0.7
X213 CSoutput.t94 commonsourceibias.t75 gnd.t298 gnd.t24 sky130_fd_pr__nfet_01v8 ad=1.155 pd=7.33 as=1.155 ps=7.33 w=7 l=1
X214 gnd.t285 commonsourceibias.t76 CSoutput.t89 gnd.t191 sky130_fd_pr__nfet_01v8 ad=2.73 pd=14.78 as=1.155 ps=7.33 w=7 l=1
X215 vdd.t86 vdd.t83 vdd.t85 vdd.t84 sky130_fd_pr__pfet_01v8 ad=3.51 pd=18.78 as=0 ps=0 w=9 l=0.5
X216 a_n3827_n3924.t21 plus.t20 a_n6972_8799.t16 gnd.t188 sky130_fd_pr__nfet_01v8 ad=2.73 pd=14.78 as=1.155 ps=7.33 w=7 l=0.7
X217 CSoutput.t41 a_n6972_8799.t73 vdd.t38 vdd.t37 sky130_fd_pr__pfet_01v8 ad=1.32 pd=8.33 as=1.32 ps=8.33 w=8 l=0.5
X218 a_n2472_13878.t11 a_n2650_13878.t52 a_n2650_13878.t53 vdd.t151 sky130_fd_pr__pfet_01v8 ad=1.485 pd=9.33 as=1.485 ps=9.33 w=9 l=0.5
X219 gnd.t299 commonsourceibias.t77 CSoutput.t95 gnd.t250 sky130_fd_pr__nfet_01v8 ad=1.155 pd=7.33 as=1.155 ps=7.33 w=7 l=1
X220 vdd.t82 vdd.t80 vdd.t81 vdd.t66 sky130_fd_pr__pfet_01v8 ad=3.12 pd=16.78 as=0 ps=0 w=8 l=0.5
X221 a_n2650_8322.t7 a_n2650_13878.t87 a_n6972_8799.t31 vdd.t156 sky130_fd_pr__pfet_01v8 ad=1.485 pd=9.33 as=1.485 ps=9.33 w=9 l=0.5
X222 CSoutput.t72 commonsourceibias.t78 gnd.t221 gnd.t220 sky130_fd_pr__nfet_01v8 ad=1.155 pd=7.33 as=1.155 ps=7.33 w=7 l=1
X223 diffpairibias.t5 diffpairibias.t4 gnd.t246 gnd.t245 sky130_fd_pr__nfet_01v8 ad=2.73 pd=14.78 as=2.73 ps=14.78 w=7 l=1
X224 gnd.t210 commonsourceibias.t79 CSoutput.t20 gnd.t209 sky130_fd_pr__nfet_01v8 ad=1.155 pd=7.33 as=1.155 ps=7.33 w=7 l=1
X225 commonsourceibias.t11 commonsourceibias.t10 gnd.t296 gnd.t220 sky130_fd_pr__nfet_01v8 ad=1.155 pd=7.33 as=1.155 ps=7.33 w=7 l=1
X226 CSoutput.t40 a_n6972_8799.t74 vdd.t18 vdd.t16 sky130_fd_pr__pfet_01v8 ad=1.32 pd=8.33 as=1.32 ps=8.33 w=8 l=0.5
X227 CSoutput.t71 commonsourceibias.t80 gnd.t218 gnd.t22 sky130_fd_pr__nfet_01v8 ad=1.155 pd=7.33 as=1.155 ps=7.33 w=7 l=1
X228 vdd.t19 a_n6972_8799.t75 CSoutput.t39 vdd.t12 sky130_fd_pr__pfet_01v8 ad=1.32 pd=8.33 as=1.32 ps=8.33 w=8 l=0.5
X229 a_n3827_n3924.t57 diffpairibias.t27 gnd.t279 gnd.t278 sky130_fd_pr__nfet_01v8 ad=2.73 pd=14.78 as=2.73 ps=14.78 w=7 l=1
X230 vdd.t7 a_n6972_8799.t76 CSoutput.t38 vdd.t6 sky130_fd_pr__pfet_01v8 ad=3.12 pd=16.78 as=1.32 ps=8.33 w=8 l=0.5
X231 a_n2650_8322.t21 a_n2650_13878.t88 vdd.t155 vdd.t154 sky130_fd_pr__pfet_01v8 ad=3.51 pd=18.78 as=1.485 ps=9.33 w=9 l=0.5
X232 CSoutput.t86 commonsourceibias.t81 gnd.t254 gnd.t225 sky130_fd_pr__nfet_01v8 ad=1.155 pd=7.33 as=2.73 ps=14.78 w=7 l=1
X233 vdd.t153 a_n2650_13878.t89 a_n2472_13878.t1 vdd.t152 sky130_fd_pr__pfet_01v8 ad=1.485 pd=9.33 as=3.51 ps=18.78 w=9 l=0.5
X234 plus.t0 gnd.t94 gnd.t96 gnd.t95 sky130_fd_pr__nfet_01v8 ad=0.165 pd=1.33 as=0.165 ps=1.33 w=1 l=0.5
X235 gnd.t290 commonsourceibias.t8 commonsourceibias.t9 gnd.t169 sky130_fd_pr__nfet_01v8 ad=1.155 pd=7.33 as=1.155 ps=7.33 w=7 l=1
X236 CSoutput.t37 a_n6972_8799.t77 vdd.t9 vdd.t8 sky130_fd_pr__pfet_01v8 ad=1.32 pd=8.33 as=1.32 ps=8.33 w=8 l=0.5
X237 vdd.t79 vdd.t77 vdd.t78 vdd.t62 sky130_fd_pr__pfet_01v8 ad=3.12 pd=16.78 as=0 ps=0 w=8 l=0.5
X238 CSoutput.t36 a_n6972_8799.t78 vdd.t11 vdd.t10 sky130_fd_pr__pfet_01v8 ad=1.32 pd=8.33 as=1.32 ps=8.33 w=8 l=0.5
X239 gnd.t234 commonsourceibias.t82 CSoutput.t78 gnd.t28 sky130_fd_pr__nfet_01v8 ad=1.155 pd=7.33 as=1.155 ps=7.33 w=7 l=1
X240 CSoutput.t11 commonsourceibias.t83 gnd.t183 gnd.t182 sky130_fd_pr__nfet_01v8 ad=1.155 pd=7.33 as=1.155 ps=7.33 w=7 l=1
X241 output.t10 CSoutput.t109 vdd.t50 gnd.t266 sky130_fd_pr__nfet_01v8 ad=0.825 pd=5.33 as=0.825 ps=5.33 w=5 l=1
X242 vdd.t13 a_n6972_8799.t79 CSoutput.t35 vdd.t12 sky130_fd_pr__pfet_01v8 ad=1.32 pd=8.33 as=1.32 ps=8.33 w=8 l=0.5
X243 vdd.t25 a_n6972_8799.t80 CSoutput.t34 vdd.t24 sky130_fd_pr__pfet_01v8 ad=1.32 pd=8.33 as=1.32 ps=8.33 w=8 l=0.5
X244 a_n3827_n3924.t20 plus.t21 a_n6972_8799.t15 gnd.t240 sky130_fd_pr__nfet_01v8 ad=2.73 pd=14.78 as=1.155 ps=7.33 w=7 l=0.7
X245 a_n6972_8799.t24 a_n2650_13878.t90 a_n2650_8322.t6 vdd.t151 sky130_fd_pr__pfet_01v8 ad=1.485 pd=9.33 as=1.485 ps=9.33 w=9 l=0.5
X246 a_n2650_8322.t5 a_n2650_13878.t91 a_n6972_8799.t25 vdd.t144 sky130_fd_pr__pfet_01v8 ad=1.485 pd=9.33 as=1.485 ps=9.33 w=9 l=0.5
X247 CSoutput.t8 commonsourceibias.t84 gnd.t168 gnd.t167 sky130_fd_pr__nfet_01v8 ad=1.155 pd=7.33 as=1.155 ps=7.33 w=7 l=1
X248 a_n3827_n3924.t42 minus.t24 a_n2650_13878.t10 gnd.t229 sky130_fd_pr__nfet_01v8 ad=1.155 pd=7.33 as=1.155 ps=7.33 w=7 l=0.7