* NGSPICE file created from opamp718.ext - technology: sky130A

.subckt opamp718 gnd CSoutput output vdd plus minus commonsourceibias outputibias
+ diffpairibias
X0 gnd.t332 commonsourceibias.t80 CSoutput.t85 gnd.t185 sky130_fd_pr__nfet_01v8 ad=1.155 pd=7.33 as=1.155 ps=7.33 w=7 l=1
X1 CSoutput.t168 a_n7636_8799.t32 vdd.t267 vdd.t222 sky130_fd_pr__pfet_01v8 ad=1.32 pd=8.33 as=1.32 ps=8.33 w=8 l=0.5
X2 commonsourceibias.t5 commonsourceibias.t4 gnd.t331 gnd.t295 sky130_fd_pr__nfet_01v8 ad=1.155 pd=7.33 as=1.155 ps=7.33 w=7 l=1
X3 a_n2140_13878.t7 a_n2318_13878.t48 vdd.t126 vdd.t125 sky130_fd_pr__pfet_01v8 ad=1.485 pd=9.33 as=1.485 ps=9.33 w=9 l=0.5
X4 a_n2140_13878.t23 a_n2318_13878.t18 a_n2318_13878.t19 vdd.t128 sky130_fd_pr__pfet_01v8 ad=1.485 pd=9.33 as=1.485 ps=9.33 w=9 l=0.5
X5 vdd.t266 a_n7636_8799.t33 CSoutput.t32 vdd.t217 sky130_fd_pr__pfet_01v8 ad=1.32 pd=8.33 as=1.32 ps=8.33 w=8 l=0.5
X6 outputibias.t7 outputibias.t6 gnd.t166 gnd.t165 sky130_fd_pr__nfet_01v8 ad=2.34 pd=12.78 as=2.34 ps=12.78 w=6 l=2
X7 gnd.t145 gnd.t143 gnd.t144 gnd.t57 sky130_fd_pr__nfet_01v8 ad=2.73 pd=14.78 as=0 ps=0 w=7 l=1
X8 a_n7636_8799.t31 plus.t5 a_n2903_n3924.t25 gnd.t15 sky130_fd_pr__nfet_01v8 ad=1.155 pd=7.33 as=1.155 ps=7.33 w=7 l=0.9
X9 CSoutput.t72 a_n7636_8799.t34 vdd.t265 vdd.t148 sky130_fd_pr__pfet_01v8 ad=1.32 pd=8.33 as=1.32 ps=8.33 w=8 l=0.5
X10 gnd.t330 commonsourceibias.t81 CSoutput.t84 gnd.t289 sky130_fd_pr__nfet_01v8 ad=1.155 pd=7.33 as=1.155 ps=7.33 w=7 l=1
X11 CSoutput.t176 a_n2318_8322.t3 sky130_fd_pr__cap_mim_m3_1 l=12 w=12
X12 gnd.t329 commonsourceibias.t82 CSoutput.t83 gnd.t214 sky130_fd_pr__nfet_01v8 ad=1.155 pd=7.33 as=1.155 ps=7.33 w=7 l=1
X13 gnd.t328 commonsourceibias.t2 commonsourceibias.t3 gnd.t210 sky130_fd_pr__nfet_01v8 ad=1.155 pd=7.33 as=1.155 ps=7.33 w=7 l=1
X14 minus.t4 gnd.t140 gnd.t142 gnd.t141 sky130_fd_pr__nfet_01v8 ad=0.165 pd=1.33 as=0.165 ps=1.33 w=1 l=0.5
X15 gnd.t327 commonsourceibias.t83 CSoutput.t82 gnd.t210 sky130_fd_pr__nfet_01v8 ad=1.155 pd=7.33 as=1.155 ps=7.33 w=7 l=1
X16 vdd.t79 vdd.t77 vdd.t78 vdd.t38 sky130_fd_pr__pfet_01v8 ad=3.12 pd=16.78 as=0 ps=0 w=8 l=0.5
X17 a_n2318_8322.t27 a_n2318_13878.t49 a_n7636_8799.t18 vdd.t127 sky130_fd_pr__pfet_01v8 ad=1.485 pd=9.33 as=1.485 ps=9.33 w=9 l=0.5
X18 gnd.t326 commonsourceibias.t84 CSoutput.t81 gnd.t207 sky130_fd_pr__nfet_01v8 ad=1.155 pd=7.33 as=1.155 ps=7.33 w=7 l=1
X19 output.t19 CSoutput.t177 vdd.t83 gnd.t32 sky130_fd_pr__nfet_01v8 ad=0.825 pd=5.33 as=0.825 ps=5.33 w=5 l=1
X20 CSoutput.t13 a_n7636_8799.t35 vdd.t264 vdd.t187 sky130_fd_pr__pfet_01v8 ad=1.32 pd=8.33 as=1.32 ps=8.33 w=8 l=0.5
X21 outputibias.t5 outputibias.t4 gnd.t347 gnd.t346 sky130_fd_pr__nfet_01v8 ad=2.34 pd=12.78 as=2.34 ps=12.78 w=6 l=2
X22 gnd.t325 commonsourceibias.t85 CSoutput.t80 gnd.t224 sky130_fd_pr__nfet_01v8 ad=1.155 pd=7.33 as=1.155 ps=7.33 w=7 l=1
X23 vdd.t263 a_n7636_8799.t36 CSoutput.t65 vdd.t213 sky130_fd_pr__pfet_01v8 ad=1.32 pd=8.33 as=1.32 ps=8.33 w=8 l=0.5
X24 a_n2318_13878.t5 minus.t5 a_n2903_n3924.t7 gnd.t14 sky130_fd_pr__nfet_01v8 ad=1.155 pd=7.33 as=1.155 ps=7.33 w=7 l=0.9
X25 gnd.t324 commonsourceibias.t0 commonsourceibias.t1 gnd.t177 sky130_fd_pr__nfet_01v8 ad=1.155 pd=7.33 as=1.155 ps=7.33 w=7 l=1
X26 a_n7636_8799.t19 plus.t6 a_n2903_n3924.t24 gnd.t148 sky130_fd_pr__nfet_01v8 ad=1.155 pd=7.33 as=1.155 ps=7.33 w=7 l=0.9
X27 a_n7636_8799.t25 a_n2318_13878.t50 a_n2318_8322.t26 vdd.t113 sky130_fd_pr__pfet_01v8 ad=1.485 pd=9.33 as=3.51 ps=18.78 w=9 l=0.5
X28 a_n2318_13878.t11 minus.t6 a_n2903_n3924.t33 gnd.t13 sky130_fd_pr__nfet_01v8 ad=1.155 pd=7.33 as=1.155 ps=7.33 w=7 l=0.9
X29 vdd.t262 a_n7636_8799.t37 CSoutput.t17 vdd.t235 sky130_fd_pr__pfet_01v8 ad=1.32 pd=8.33 as=1.32 ps=8.33 w=8 l=0.5
X30 CSoutput.t63 a_n7636_8799.t38 vdd.t261 vdd.t189 sky130_fd_pr__pfet_01v8 ad=1.32 pd=8.33 as=1.32 ps=8.33 w=8 l=0.5
X31 vdd.t260 a_n7636_8799.t39 CSoutput.t73 vdd.t232 sky130_fd_pr__pfet_01v8 ad=1.32 pd=8.33 as=1.32 ps=8.33 w=8 l=0.5
X32 a_n7636_8799.t26 a_n2318_13878.t51 a_n2318_8322.t25 vdd.t130 sky130_fd_pr__pfet_01v8 ad=1.485 pd=9.33 as=3.51 ps=18.78 w=9 l=0.5
X33 CSoutput.t124 commonsourceibias.t86 gnd.t323 gnd.t201 sky130_fd_pr__nfet_01v8 ad=1.155 pd=7.33 as=1.155 ps=7.33 w=7 l=1
X34 gnd.t322 commonsourceibias.t50 commonsourceibias.t51 gnd.t285 sky130_fd_pr__nfet_01v8 ad=1.155 pd=7.33 as=1.155 ps=7.33 w=7 l=1
X35 vdd.t76 vdd.t74 vdd.t75 vdd.t5 sky130_fd_pr__pfet_01v8 ad=3.51 pd=18.78 as=0 ps=0 w=9 l=0.5
X36 CSoutput.t123 commonsourceibias.t87 gnd.t321 gnd.t195 sky130_fd_pr__nfet_01v8 ad=1.155 pd=7.33 as=1.155 ps=7.33 w=7 l=1
X37 CSoutput.t169 a_n7636_8799.t40 vdd.t259 vdd.t222 sky130_fd_pr__pfet_01v8 ad=1.32 pd=8.33 as=1.32 ps=8.33 w=8 l=0.5
X38 vdd.t84 CSoutput.t178 output.t18 gnd.t31 sky130_fd_pr__nfet_01v8 ad=0.825 pd=5.33 as=0.825 ps=5.33 w=5 l=1
X39 a_n2903_n3924.t23 plus.t7 a_n7636_8799.t1 gnd.t11 sky130_fd_pr__nfet_01v8 ad=2.73 pd=14.78 as=1.155 ps=7.33 w=7 l=0.9
X40 CSoutput.t121 commonsourceibias.t88 gnd.t319 gnd.t193 sky130_fd_pr__nfet_01v8 ad=1.155 pd=7.33 as=1.155 ps=7.33 w=7 l=1
X41 CSoutput.t122 commonsourceibias.t89 gnd.t320 gnd.t191 sky130_fd_pr__nfet_01v8 ad=1.155 pd=7.33 as=1.155 ps=7.33 w=7 l=1
X42 a_n2903_n3924.t8 diffpairibias.t16 gnd.t34 gnd.t33 sky130_fd_pr__nfet_01v8 ad=2.73 pd=14.78 as=2.73 ps=14.78 w=7 l=1
X43 CSoutput.t77 a_n7636_8799.t41 vdd.t258 vdd.t181 sky130_fd_pr__pfet_01v8 ad=1.32 pd=8.33 as=3.12 ps=16.78 w=8 l=0.5
X44 a_n2903_n3924.t39 minus.t7 a_n2318_13878.t47 gnd.t333 sky130_fd_pr__nfet_01v8 ad=1.155 pd=7.33 as=1.155 ps=7.33 w=7 l=0.9
X45 CSoutput.t120 commonsourceibias.t90 gnd.t318 gnd.t187 sky130_fd_pr__nfet_01v8 ad=1.155 pd=7.33 as=1.155 ps=7.33 w=7 l=1
X46 CSoutput.t3 a_n7636_8799.t42 vdd.t257 vdd.t148 sky130_fd_pr__pfet_01v8 ad=1.32 pd=8.33 as=1.32 ps=8.33 w=8 l=0.5
X47 gnd.t317 commonsourceibias.t48 commonsourceibias.t49 gnd.t245 sky130_fd_pr__nfet_01v8 ad=1.155 pd=7.33 as=1.155 ps=7.33 w=7 l=1
X48 outputibias.t3 outputibias.t2 gnd.t152 gnd.t151 sky130_fd_pr__nfet_01v8 ad=2.34 pd=12.78 as=2.34 ps=12.78 w=6 l=2
X49 output.t17 CSoutput.t179 vdd.t85 gnd.t30 sky130_fd_pr__nfet_01v8 ad=0.825 pd=5.33 as=0.825 ps=5.33 w=5 l=1
X50 vdd.t73 vdd.t71 vdd.t72 vdd.t38 sky130_fd_pr__pfet_01v8 ad=3.12 pd=16.78 as=0 ps=0 w=8 l=0.5
X51 a_n2140_13878.t22 a_n2318_13878.t16 a_n2318_13878.t17 vdd.t100 sky130_fd_pr__pfet_01v8 ad=1.485 pd=9.33 as=1.485 ps=9.33 w=9 l=0.5
X52 CSoutput.t129 commonsourceibias.t91 gnd.t301 gnd.t295 sky130_fd_pr__nfet_01v8 ad=1.155 pd=7.33 as=1.155 ps=7.33 w=7 l=1
X53 commonsourceibias.t47 commonsourceibias.t46 gnd.t316 gnd.t266 sky130_fd_pr__nfet_01v8 ad=1.155 pd=7.33 as=2.73 ps=14.78 w=7 l=1
X54 a_n2318_13878.t29 a_n2318_13878.t28 a_n2140_13878.t21 vdd.t116 sky130_fd_pr__pfet_01v8 ad=1.485 pd=9.33 as=1.485 ps=9.33 w=9 l=0.5
X55 CSoutput.t180 a_n2318_8322.t2 sky130_fd_pr__cap_mim_m3_1 l=12 w=12
X56 gnd.t139 gnd.t137 plus.t4 gnd.t138 sky130_fd_pr__nfet_01v8 ad=0.165 pd=1.33 as=0.39 ps=2.78 w=1 l=0.5
X57 CSoutput.t75 a_n7636_8799.t43 vdd.t256 vdd.t187 sky130_fd_pr__pfet_01v8 ad=1.32 pd=8.33 as=1.32 ps=8.33 w=8 l=0.5
X58 vdd.t70 vdd.t68 vdd.t69 vdd.t51 sky130_fd_pr__pfet_01v8 ad=3.51 pd=18.78 as=0 ps=0 w=9 l=0.5
X59 a_n2903_n3924.t22 plus.t8 a_n7636_8799.t12 gnd.t9 sky130_fd_pr__nfet_01v8 ad=1.155 pd=7.33 as=1.155 ps=7.33 w=7 l=0.9
X60 vdd.t255 a_n7636_8799.t44 CSoutput.t160 vdd.t213 sky130_fd_pr__pfet_01v8 ad=1.32 pd=8.33 as=1.32 ps=8.33 w=8 l=0.5
X61 diffpairibias.t15 diffpairibias.t14 gnd.t162 gnd.t161 sky130_fd_pr__nfet_01v8 ad=2.73 pd=14.78 as=2.73 ps=14.78 w=7 l=1
X62 gnd.t136 gnd.t134 gnd.t135 gnd.t57 sky130_fd_pr__nfet_01v8 ad=2.73 pd=14.78 as=0 ps=0 w=7 l=1
X63 a_n7636_8799.t16 a_n2318_13878.t52 a_n2318_8322.t24 vdd.t123 sky130_fd_pr__pfet_01v8 ad=1.485 pd=9.33 as=1.485 ps=9.33 w=9 l=0.5
X64 CSoutput.t33 a_n7636_8799.t45 vdd.t254 vdd.t219 sky130_fd_pr__pfet_01v8 ad=1.32 pd=8.33 as=1.32 ps=8.33 w=8 l=0.5
X65 vdd.t253 a_n7636_8799.t46 CSoutput.t43 vdd.t156 sky130_fd_pr__pfet_01v8 ad=1.32 pd=8.33 as=1.32 ps=8.33 w=8 l=0.5
X66 vdd.t252 a_n7636_8799.t47 CSoutput.t7 vdd.t232 sky130_fd_pr__pfet_01v8 ad=1.32 pd=8.33 as=1.32 ps=8.33 w=8 l=0.5
X67 gnd.t315 commonsourceibias.t92 CSoutput.t119 gnd.t289 sky130_fd_pr__nfet_01v8 ad=1.155 pd=7.33 as=1.155 ps=7.33 w=7 l=1
X68 diffpairibias.t13 diffpairibias.t12 gnd.t158 gnd.t157 sky130_fd_pr__nfet_01v8 ad=2.73 pd=14.78 as=2.73 ps=14.78 w=7 l=1
X69 gnd.t314 commonsourceibias.t93 CSoutput.t118 gnd.t173 sky130_fd_pr__nfet_01v8 ad=1.155 pd=7.33 as=1.155 ps=7.33 w=7 l=1
X70 CSoutput.t74 a_n7636_8799.t48 vdd.t251 vdd.t163 sky130_fd_pr__pfet_01v8 ad=1.32 pd=8.33 as=1.32 ps=8.33 w=8 l=0.5
X71 output.t16 CSoutput.t181 vdd.t93 gnd.t29 sky130_fd_pr__nfet_01v8 ad=0.825 pd=5.33 as=0.825 ps=5.33 w=5 l=1
X72 commonsourceibias.t45 commonsourceibias.t44 gnd.t313 gnd.t201 sky130_fd_pr__nfet_01v8 ad=1.155 pd=7.33 as=1.155 ps=7.33 w=7 l=1
X73 gnd.t312 commonsourceibias.t94 CSoutput.t117 gnd.t285 sky130_fd_pr__nfet_01v8 ad=1.155 pd=7.33 as=1.155 ps=7.33 w=7 l=1
X74 vdd.t250 a_n7636_8799.t49 CSoutput.t41 vdd.t144 sky130_fd_pr__pfet_01v8 ad=1.32 pd=8.33 as=1.32 ps=8.33 w=8 l=0.5
X75 CSoutput.t68 a_n7636_8799.t50 vdd.t249 vdd.t238 sky130_fd_pr__pfet_01v8 ad=1.32 pd=8.33 as=1.32 ps=8.33 w=8 l=0.5
X76 CSoutput.t0 a_n7636_8799.t51 vdd.t248 vdd.t181 sky130_fd_pr__pfet_01v8 ad=1.32 pd=8.33 as=3.12 ps=16.78 w=8 l=0.5
X77 CSoutput.t20 a_n7636_8799.t52 vdd.t247 vdd.t198 sky130_fd_pr__pfet_01v8 ad=1.32 pd=8.33 as=3.12 ps=16.78 w=8 l=0.5
X78 commonsourceibias.t43 commonsourceibias.t42 gnd.t311 gnd.t236 sky130_fd_pr__nfet_01v8 ad=1.155 pd=7.33 as=1.155 ps=7.33 w=7 l=1
X79 gnd.t310 commonsourceibias.t95 CSoutput.t116 gnd.t224 sky130_fd_pr__nfet_01v8 ad=1.155 pd=7.33 as=1.155 ps=7.33 w=7 l=1
X80 CSoutput.t172 a_n7636_8799.t53 vdd.t246 vdd.t238 sky130_fd_pr__pfet_01v8 ad=1.32 pd=8.33 as=1.32 ps=8.33 w=8 l=0.5
X81 a_n2903_n3924.t35 minus.t8 a_n2318_13878.t45 gnd.t172 sky130_fd_pr__nfet_01v8 ad=1.155 pd=7.33 as=1.155 ps=7.33 w=7 l=0.9
X82 output.t15 CSoutput.t182 vdd.t97 gnd.t28 sky130_fd_pr__nfet_01v8 ad=1.95 pd=10.78 as=0.825 ps=5.33 w=5 l=1
X83 a_n2903_n3924.t21 plus.t9 a_n7636_8799.t0 gnd.t10 sky130_fd_pr__nfet_01v8 ad=2.73 pd=14.78 as=1.155 ps=7.33 w=7 l=0.9
X84 commonsourceibias.t61 commonsourceibias.t60 gnd.t309 gnd.t226 sky130_fd_pr__nfet_01v8 ad=1.155 pd=7.33 as=1.155 ps=7.33 w=7 l=1
X85 gnd.t308 commonsourceibias.t96 CSoutput.t133 gnd.t281 sky130_fd_pr__nfet_01v8 ad=1.155 pd=7.33 as=1.155 ps=7.33 w=7 l=1
X86 CSoutput.t128 commonsourceibias.t97 gnd.t300 gnd.t277 sky130_fd_pr__nfet_01v8 ad=1.155 pd=7.33 as=1.155 ps=7.33 w=7 l=1
X87 gnd.t307 commonsourceibias.t58 commonsourceibias.t59 gnd.t281 sky130_fd_pr__nfet_01v8 ad=1.155 pd=7.33 as=1.155 ps=7.33 w=7 l=1
X88 a_n2903_n3924.t1 diffpairibias.t17 gnd.t5 gnd.t4 sky130_fd_pr__nfet_01v8 ad=2.73 pd=14.78 as=2.73 ps=14.78 w=7 l=1
X89 CSoutput.t183 a_n2318_8322.t0 sky130_fd_pr__cap_mim_m3_1 l=12 w=12
X90 vdd.t245 a_n7636_8799.t54 CSoutput.t164 vdd.t210 sky130_fd_pr__pfet_01v8 ad=1.32 pd=8.33 as=1.32 ps=8.33 w=8 l=0.5
X91 a_n2318_13878.t25 a_n2318_13878.t24 a_n2140_13878.t20 vdd.t127 sky130_fd_pr__pfet_01v8 ad=1.485 pd=9.33 as=1.485 ps=9.33 w=9 l=0.5
X92 vdd.t244 a_n7636_8799.t55 CSoutput.t50 vdd.t191 sky130_fd_pr__pfet_01v8 ad=1.32 pd=8.33 as=1.32 ps=8.33 w=8 l=0.5
X93 a_n2903_n3924.t20 plus.t10 a_n7636_8799.t30 gnd.t171 sky130_fd_pr__nfet_01v8 ad=1.155 pd=7.33 as=1.155 ps=7.33 w=7 l=0.9
X94 a_n7636_8799.t17 a_n2318_13878.t53 a_n2318_8322.t23 vdd.t124 sky130_fd_pr__pfet_01v8 ad=1.485 pd=9.33 as=1.485 ps=9.33 w=9 l=0.5
X95 vdd.t243 a_n7636_8799.t56 CSoutput.t27 vdd.t235 sky130_fd_pr__pfet_01v8 ad=1.32 pd=8.33 as=1.32 ps=8.33 w=8 l=0.5
X96 a_n2318_13878.t13 a_n2318_13878.t12 a_n2140_13878.t19 vdd.t80 sky130_fd_pr__pfet_01v8 ad=3.51 pd=18.78 as=1.485 ps=9.33 w=9 l=0.5
X97 gnd.t306 commonsourceibias.t56 commonsourceibias.t57 gnd.t269 sky130_fd_pr__nfet_01v8 ad=2.73 pd=14.78 as=1.155 ps=7.33 w=7 l=1
X98 commonsourceibias.t55 commonsourceibias.t54 gnd.t305 gnd.t187 sky130_fd_pr__nfet_01v8 ad=1.155 pd=7.33 as=1.155 ps=7.33 w=7 l=1
X99 CSoutput.t132 commonsourceibias.t98 gnd.t304 gnd.t193 sky130_fd_pr__nfet_01v8 ad=1.155 pd=7.33 as=1.155 ps=7.33 w=7 l=1
X100 vdd.t242 a_n7636_8799.t57 CSoutput.t24 vdd.t160 sky130_fd_pr__pfet_01v8 ad=1.32 pd=8.33 as=1.32 ps=8.33 w=8 l=0.5
X101 CSoutput.t29 a_n7636_8799.t58 vdd.t241 vdd.t195 sky130_fd_pr__pfet_01v8 ad=1.32 pd=8.33 as=1.32 ps=8.33 w=8 l=0.5
X102 CSoutput.t131 commonsourceibias.t99 gnd.t303 gnd.t264 sky130_fd_pr__nfet_01v8 ad=1.155 pd=7.33 as=1.155 ps=7.33 w=7 l=1
X103 vdd.t96 CSoutput.t184 output.t14 gnd.t27 sky130_fd_pr__nfet_01v8 ad=0.825 pd=5.33 as=1.95 ps=10.78 w=5 l=1
X104 vdd.t67 vdd.t65 vdd.t66 vdd.t55 sky130_fd_pr__pfet_01v8 ad=3.51 pd=18.78 as=0 ps=0 w=9 l=0.5
X105 vdd.t64 vdd.t62 vdd.t63 vdd.t17 sky130_fd_pr__pfet_01v8 ad=3.12 pd=16.78 as=0 ps=0 w=8 l=0.5
X106 CSoutput.t130 commonsourceibias.t100 gnd.t302 gnd.t271 sky130_fd_pr__nfet_01v8 ad=1.155 pd=7.33 as=1.155 ps=7.33 w=7 l=1
X107 CSoutput.t31 a_n7636_8799.t59 vdd.t240 vdd.t163 sky130_fd_pr__pfet_01v8 ad=1.32 pd=8.33 as=1.32 ps=8.33 w=8 l=0.5
X108 vdd.t61 vdd.t58 vdd.t60 vdd.t59 sky130_fd_pr__pfet_01v8 ad=3.51 pd=18.78 as=0 ps=0 w=9 l=0.5
X109 gnd.t299 commonsourceibias.t101 CSoutput.t127 gnd.t269 sky130_fd_pr__nfet_01v8 ad=2.73 pd=14.78 as=1.155 ps=7.33 w=7 l=1
X110 commonsourceibias.t53 commonsourceibias.t52 gnd.t298 gnd.t222 sky130_fd_pr__nfet_01v8 ad=1.155 pd=7.33 as=1.155 ps=7.33 w=7 l=1
X111 CSoutput.t126 commonsourceibias.t102 gnd.t297 gnd.t266 sky130_fd_pr__nfet_01v8 ad=1.155 pd=7.33 as=2.73 ps=14.78 w=7 l=1
X112 CSoutput.t125 commonsourceibias.t103 gnd.t296 gnd.t295 sky130_fd_pr__nfet_01v8 ad=1.155 pd=7.33 as=1.155 ps=7.33 w=7 l=1
X113 vdd.t109 a_n2318_13878.t54 a_n2318_8322.t11 vdd.t108 sky130_fd_pr__pfet_01v8 ad=1.485 pd=9.33 as=1.485 ps=9.33 w=9 l=0.5
X114 a_n2318_13878.t21 a_n2318_13878.t20 a_n2140_13878.t18 vdd.t99 sky130_fd_pr__pfet_01v8 ad=3.51 pd=18.78 as=1.485 ps=9.33 w=9 l=0.5
X115 gnd.t133 gnd.t131 minus.t3 gnd.t132 sky130_fd_pr__nfet_01v8 ad=0.165 pd=1.33 as=0.39 ps=2.78 w=1 l=0.5
X116 a_n2318_8322.t10 a_n2318_13878.t55 vdd.t111 vdd.t110 sky130_fd_pr__pfet_01v8 ad=1.485 pd=9.33 as=1.485 ps=9.33 w=9 l=0.5
X117 a_n2903_n3924.t29 diffpairibias.t18 gnd.t160 gnd.t159 sky130_fd_pr__nfet_01v8 ad=2.73 pd=14.78 as=2.73 ps=14.78 w=7 l=1
X118 CSoutput.t2 a_n7636_8799.t60 vdd.t239 vdd.t238 sky130_fd_pr__pfet_01v8 ad=1.32 pd=8.33 as=1.32 ps=8.33 w=8 l=0.5
X119 CSoutput.t5 a_n7636_8799.t61 vdd.t237 vdd.t198 sky130_fd_pr__pfet_01v8 ad=1.32 pd=8.33 as=3.12 ps=16.78 w=8 l=0.5
X120 gnd.t294 commonsourceibias.t104 CSoutput.t159 gnd.t243 sky130_fd_pr__nfet_01v8 ad=1.155 pd=7.33 as=1.155 ps=7.33 w=7 l=1
X121 commonsourceibias.t79 commonsourceibias.t78 gnd.t293 gnd.t271 sky130_fd_pr__nfet_01v8 ad=1.155 pd=7.33 as=1.155 ps=7.33 w=7 l=1
X122 gnd.t130 gnd.t128 gnd.t129 gnd.t72 sky130_fd_pr__nfet_01v8 ad=2.73 pd=14.78 as=0 ps=0 w=7 l=0.9
X123 commonsourceibias.t77 commonsourceibias.t76 gnd.t292 gnd.t191 sky130_fd_pr__nfet_01v8 ad=1.155 pd=7.33 as=1.155 ps=7.33 w=7 l=1
X124 vdd.t137 a_n2318_13878.t56 a_n2140_13878.t6 vdd.t136 sky130_fd_pr__pfet_01v8 ad=1.485 pd=9.33 as=1.485 ps=9.33 w=9 l=0.5
X125 vdd.t57 vdd.t54 vdd.t56 vdd.t55 sky130_fd_pr__pfet_01v8 ad=3.51 pd=18.78 as=0 ps=0 w=9 l=0.5
X126 gnd.t291 commonsourceibias.t74 commonsourceibias.t75 gnd.t214 sky130_fd_pr__nfet_01v8 ad=1.155 pd=7.33 as=1.155 ps=7.33 w=7 l=1
X127 gnd.t280 commonsourceibias.t105 CSoutput.t153 gnd.t173 sky130_fd_pr__nfet_01v8 ad=1.155 pd=7.33 as=1.155 ps=7.33 w=7 l=1
X128 vdd.t236 a_n7636_8799.t62 CSoutput.t38 vdd.t235 sky130_fd_pr__pfet_01v8 ad=1.32 pd=8.33 as=1.32 ps=8.33 w=8 l=0.5
X129 gnd.t290 commonsourceibias.t72 commonsourceibias.t73 gnd.t289 sky130_fd_pr__nfet_01v8 ad=1.155 pd=7.33 as=1.155 ps=7.33 w=7 l=1
X130 outputibias.t1 outputibias.t0 gnd.t170 gnd.t169 sky130_fd_pr__nfet_01v8 ad=2.34 pd=12.78 as=2.34 ps=12.78 w=6 l=2
X131 a_n7636_8799.t28 plus.t11 a_n2903_n3924.t19 gnd.t7 sky130_fd_pr__nfet_01v8 ad=1.155 pd=7.33 as=2.73 ps=14.78 w=7 l=0.9
X132 vdd.t53 vdd.t50 vdd.t52 vdd.t51 sky130_fd_pr__pfet_01v8 ad=3.51 pd=18.78 as=0 ps=0 w=9 l=0.5
X133 a_n2318_8322.t9 a_n2318_13878.t57 vdd.t139 vdd.t138 sky130_fd_pr__pfet_01v8 ad=3.51 pd=18.78 as=1.485 ps=9.33 w=9 l=0.5
X134 commonsourceibias.t71 commonsourceibias.t70 gnd.t288 gnd.t175 sky130_fd_pr__nfet_01v8 ad=1.155 pd=7.33 as=1.155 ps=7.33 w=7 l=1
X135 gnd.t287 commonsourceibias.t106 CSoutput.t158 gnd.t231 sky130_fd_pr__nfet_01v8 ad=1.155 pd=7.33 as=1.155 ps=7.33 w=7 l=1
X136 gnd.t286 commonsourceibias.t107 CSoutput.t157 gnd.t285 sky130_fd_pr__nfet_01v8 ad=1.155 pd=7.33 as=1.155 ps=7.33 w=7 l=1
X137 a_n7636_8799.t23 a_n2318_13878.t58 a_n2318_8322.t22 vdd.t129 sky130_fd_pr__pfet_01v8 ad=1.485 pd=9.33 as=1.485 ps=9.33 w=9 l=0.5
X138 gnd.t284 commonsourceibias.t108 CSoutput.t156 gnd.t241 sky130_fd_pr__nfet_01v8 ad=2.73 pd=14.78 as=1.155 ps=7.33 w=7 l=1
X139 a_n7636_8799.t13 plus.t12 a_n2903_n3924.t18 gnd.t37 sky130_fd_pr__nfet_01v8 ad=1.155 pd=7.33 as=2.73 ps=14.78 w=7 l=0.9
X140 CSoutput.t28 a_n7636_8799.t63 vdd.t234 vdd.t172 sky130_fd_pr__pfet_01v8 ad=1.32 pd=8.33 as=1.32 ps=8.33 w=8 l=0.5
X141 diffpairibias.t11 diffpairibias.t10 gnd.t36 gnd.t35 sky130_fd_pr__nfet_01v8 ad=2.73 pd=14.78 as=2.73 ps=14.78 w=7 l=1
X142 vdd.t233 a_n7636_8799.t64 CSoutput.t71 vdd.t232 sky130_fd_pr__pfet_01v8 ad=1.32 pd=8.33 as=1.32 ps=8.33 w=8 l=0.5
X143 a_n2318_13878.t33 a_n2318_13878.t32 a_n2140_13878.t17 vdd.t2 sky130_fd_pr__pfet_01v8 ad=1.485 pd=9.33 as=1.485 ps=9.33 w=9 l=0.5
X144 vdd.t231 a_n7636_8799.t65 CSoutput.t22 vdd.t160 sky130_fd_pr__pfet_01v8 ad=1.32 pd=8.33 as=1.32 ps=8.33 w=8 l=0.5
X145 a_n7636_8799.t24 a_n2318_13878.t59 a_n2318_8322.t21 vdd.t128 sky130_fd_pr__pfet_01v8 ad=1.485 pd=9.33 as=1.485 ps=9.33 w=9 l=0.5
X146 CSoutput.t167 a_n7636_8799.t66 vdd.t230 vdd.t195 sky130_fd_pr__pfet_01v8 ad=1.32 pd=8.33 as=1.32 ps=8.33 w=8 l=0.5
X147 gnd.t283 commonsourceibias.t109 CSoutput.t155 gnd.t253 sky130_fd_pr__nfet_01v8 ad=1.155 pd=7.33 as=1.155 ps=7.33 w=7 l=1
X148 output.t3 outputibias.t8 gnd.t341 gnd.t340 sky130_fd_pr__nfet_01v8 ad=2.34 pd=12.78 as=2.34 ps=12.78 w=6 l=2
X149 a_n2140_13878.t16 a_n2318_13878.t14 a_n2318_13878.t15 vdd.t124 sky130_fd_pr__pfet_01v8 ad=1.485 pd=9.33 as=1.485 ps=9.33 w=9 l=0.5
X150 gnd.t127 gnd.t125 gnd.t126 gnd.t39 sky130_fd_pr__nfet_01v8 ad=2.73 pd=14.78 as=0 ps=0 w=7 l=0.9
X151 vdd.t49 vdd.t47 vdd.t48 vdd.t17 sky130_fd_pr__pfet_01v8 ad=3.12 pd=16.78 as=0 ps=0 w=8 l=0.5
X152 gnd.t282 commonsourceibias.t110 CSoutput.t154 gnd.t281 sky130_fd_pr__nfet_01v8 ad=1.155 pd=7.33 as=1.155 ps=7.33 w=7 l=1
X153 CSoutput.t152 commonsourceibias.t111 gnd.t279 gnd.t277 sky130_fd_pr__nfet_01v8 ad=1.155 pd=7.33 as=1.155 ps=7.33 w=7 l=1
X154 commonsourceibias.t69 commonsourceibias.t68 gnd.t278 gnd.t277 sky130_fd_pr__nfet_01v8 ad=1.155 pd=7.33 as=1.155 ps=7.33 w=7 l=1
X155 CSoutput.t166 a_n7636_8799.t67 vdd.t229 vdd.t219 sky130_fd_pr__pfet_01v8 ad=1.32 pd=8.33 as=1.32 ps=8.33 w=8 l=0.5
X156 gnd.t276 commonsourceibias.t112 CSoutput.t151 gnd.t181 sky130_fd_pr__nfet_01v8 ad=1.155 pd=7.33 as=1.155 ps=7.33 w=7 l=1
X157 vdd.t120 a_n2318_13878.t60 a_n2318_8322.t8 vdd.t119 sky130_fd_pr__pfet_01v8 ad=1.485 pd=9.33 as=3.51 ps=18.78 w=9 l=0.5
X158 CSoutput.t150 commonsourceibias.t113 gnd.t275 gnd.t205 sky130_fd_pr__nfet_01v8 ad=1.155 pd=7.33 as=1.155 ps=7.33 w=7 l=1
X159 a_n2140_13878.t15 a_n2318_13878.t34 a_n2318_13878.t35 vdd.t113 sky130_fd_pr__pfet_01v8 ad=1.485 pd=9.33 as=3.51 ps=18.78 w=9 l=0.5
X160 vdd.t228 a_n7636_8799.t68 CSoutput.t30 vdd.t217 sky130_fd_pr__pfet_01v8 ad=1.32 pd=8.33 as=1.32 ps=8.33 w=8 l=0.5
X161 a_n2318_13878.t4 minus.t9 a_n2903_n3924.t6 gnd.t15 sky130_fd_pr__nfet_01v8 ad=1.155 pd=7.33 as=1.155 ps=7.33 w=7 l=0.9
X162 a_n2903_n3924.t17 plus.t13 a_n7636_8799.t5 gnd.t6 sky130_fd_pr__nfet_01v8 ad=1.155 pd=7.33 as=1.155 ps=7.33 w=7 l=0.9
X163 a_n2318_13878.t39 a_n2318_13878.t38 a_n2140_13878.t14 vdd.t3 sky130_fd_pr__pfet_01v8 ad=1.485 pd=9.33 as=1.485 ps=9.33 w=9 l=0.5
X164 plus.t3 gnd.t122 gnd.t124 gnd.t123 sky130_fd_pr__nfet_01v8 ad=0.165 pd=1.33 as=0.165 ps=1.33 w=1 l=0.5
X165 vdd.t227 a_n7636_8799.t69 CSoutput.t79 vdd.t174 sky130_fd_pr__pfet_01v8 ad=1.32 pd=8.33 as=1.32 ps=8.33 w=8 l=0.5
X166 CSoutput.t149 commonsourceibias.t114 gnd.t274 gnd.t264 sky130_fd_pr__nfet_01v8 ad=1.155 pd=7.33 as=1.155 ps=7.33 w=7 l=1
X167 a_n2903_n3924.t0 diffpairibias.t19 gnd.t1 gnd.t0 sky130_fd_pr__nfet_01v8 ad=2.73 pd=14.78 as=2.73 ps=14.78 w=7 l=1
X168 gnd.t121 gnd.t119 minus.t2 gnd.t120 sky130_fd_pr__nfet_01v8 ad=0.165 pd=1.33 as=0.165 ps=1.33 w=1 l=0.5
X169 gnd.t118 gnd.t115 gnd.t117 gnd.t116 sky130_fd_pr__nfet_01v8 ad=2.73 pd=14.78 as=0 ps=0 w=7 l=1
X170 a_n2903_n3924.t26 diffpairibias.t20 gnd.t147 gnd.t146 sky130_fd_pr__nfet_01v8 ad=2.73 pd=14.78 as=2.73 ps=14.78 w=7 l=1
X171 vdd.t95 CSoutput.t185 output.t13 gnd.t26 sky130_fd_pr__nfet_01v8 ad=0.825 pd=5.33 as=0.825 ps=5.33 w=5 l=1
X172 a_n7636_8799.t8 plus.t14 a_n2903_n3924.t16 gnd.t16 sky130_fd_pr__nfet_01v8 ad=1.155 pd=7.33 as=1.155 ps=7.33 w=7 l=0.9
X173 CSoutput.t148 commonsourceibias.t115 gnd.t273 gnd.t183 sky130_fd_pr__nfet_01v8 ad=1.155 pd=7.33 as=1.155 ps=7.33 w=7 l=1
X174 CSoutput.t147 commonsourceibias.t116 gnd.t272 gnd.t271 sky130_fd_pr__nfet_01v8 ad=1.155 pd=7.33 as=1.155 ps=7.33 w=7 l=1
X175 vdd.t226 a_n7636_8799.t70 CSoutput.t54 vdd.t210 sky130_fd_pr__pfet_01v8 ad=1.32 pd=8.33 as=1.32 ps=8.33 w=8 l=0.5
X176 vdd.t225 a_n7636_8799.t71 CSoutput.t4 vdd.t179 sky130_fd_pr__pfet_01v8 ad=3.12 pd=16.78 as=1.32 ps=8.33 w=8 l=0.5
X177 gnd.t270 commonsourceibias.t117 CSoutput.t146 gnd.t269 sky130_fd_pr__nfet_01v8 ad=2.73 pd=14.78 as=1.155 ps=7.33 w=7 l=1
X178 gnd.t268 commonsourceibias.t118 CSoutput.t145 gnd.t245 sky130_fd_pr__nfet_01v8 ad=1.155 pd=7.33 as=1.155 ps=7.33 w=7 l=1
X179 CSoutput.t144 commonsourceibias.t119 gnd.t267 gnd.t266 sky130_fd_pr__nfet_01v8 ad=1.155 pd=7.33 as=2.73 ps=14.78 w=7 l=1
X180 commonsourceibias.t67 commonsourceibias.t66 gnd.t265 gnd.t264 sky130_fd_pr__nfet_01v8 ad=1.155 pd=7.33 as=1.155 ps=7.33 w=7 l=1
X181 CSoutput.t143 commonsourceibias.t120 gnd.t263 gnd.t220 sky130_fd_pr__nfet_01v8 ad=1.155 pd=7.33 as=1.155 ps=7.33 w=7 l=1
X182 gnd.t114 gnd.t112 gnd.t113 gnd.t47 sky130_fd_pr__nfet_01v8 ad=2.73 pd=14.78 as=0 ps=0 w=7 l=1
X183 a_n7636_8799.t4 plus.t15 a_n2903_n3924.t15 gnd.t13 sky130_fd_pr__nfet_01v8 ad=1.155 pd=7.33 as=1.155 ps=7.33 w=7 l=0.9
X184 gnd.t111 gnd.t108 gnd.t110 gnd.t109 sky130_fd_pr__nfet_01v8 ad=2.34 pd=12.78 as=0 ps=0 w=6 l=2
X185 CSoutput.t25 a_n7636_8799.t72 vdd.t224 vdd.t142 sky130_fd_pr__pfet_01v8 ad=1.32 pd=8.33 as=1.32 ps=8.33 w=8 l=0.5
X186 gnd.t262 commonsourceibias.t121 CSoutput.t142 gnd.t243 sky130_fd_pr__nfet_01v8 ad=1.155 pd=7.33 as=1.155 ps=7.33 w=7 l=1
X187 CSoutput.t165 a_n7636_8799.t73 vdd.t223 vdd.t222 sky130_fd_pr__pfet_01v8 ad=1.32 pd=8.33 as=1.32 ps=8.33 w=8 l=0.5
X188 CSoutput.t174 a_n7636_8799.t74 vdd.t221 vdd.t205 sky130_fd_pr__pfet_01v8 ad=1.32 pd=8.33 as=1.32 ps=8.33 w=8 l=0.5
X189 gnd.t107 gnd.t105 gnd.t106 gnd.t76 sky130_fd_pr__nfet_01v8 ad=2.73 pd=14.78 as=0 ps=0 w=7 l=1
X190 CSoutput.t141 commonsourceibias.t122 gnd.t261 gnd.t236 sky130_fd_pr__nfet_01v8 ad=1.155 pd=7.33 as=1.155 ps=7.33 w=7 l=1
X191 diffpairibias.t9 diffpairibias.t8 gnd.t3 gnd.t2 sky130_fd_pr__nfet_01v8 ad=2.73 pd=14.78 as=2.73 ps=14.78 w=7 l=1
X192 a_n2140_13878.t5 a_n2318_13878.t61 vdd.t122 vdd.t121 sky130_fd_pr__pfet_01v8 ad=1.485 pd=9.33 as=1.485 ps=9.33 w=9 l=0.5
X193 a_n2318_13878.t2 minus.t10 a_n2903_n3924.t4 gnd.t8 sky130_fd_pr__nfet_01v8 ad=1.155 pd=7.33 as=1.155 ps=7.33 w=7 l=0.9
X194 vdd.t106 a_n2318_13878.t62 a_n2140_13878.t4 vdd.t105 sky130_fd_pr__pfet_01v8 ad=1.485 pd=9.33 as=1.485 ps=9.33 w=9 l=0.5
X195 vdd.t46 vdd.t44 vdd.t45 vdd.t34 sky130_fd_pr__pfet_01v8 ad=3.12 pd=16.78 as=0 ps=0 w=8 l=0.5
X196 CSoutput.t19 a_n7636_8799.t75 vdd.t220 vdd.t219 sky130_fd_pr__pfet_01v8 ad=1.32 pd=8.33 as=1.32 ps=8.33 w=8 l=0.5
X197 a_n2903_n3924.t14 plus.t16 a_n7636_8799.t29 gnd.t333 sky130_fd_pr__nfet_01v8 ad=1.155 pd=7.33 as=1.155 ps=7.33 w=7 l=0.9
X198 vdd.t218 a_n7636_8799.t76 CSoutput.t11 vdd.t217 sky130_fd_pr__pfet_01v8 ad=1.32 pd=8.33 as=1.32 ps=8.33 w=8 l=0.5
X199 vdd.t43 vdd.t41 vdd.t42 vdd.t34 sky130_fd_pr__pfet_01v8 ad=3.12 pd=16.78 as=0 ps=0 w=8 l=0.5
X200 gnd.t178 commonsourceibias.t123 CSoutput.t108 gnd.t177 sky130_fd_pr__nfet_01v8 ad=1.155 pd=7.33 as=1.155 ps=7.33 w=7 l=1
X201 CSoutput.t140 commonsourceibias.t124 gnd.t260 gnd.t179 sky130_fd_pr__nfet_01v8 ad=1.155 pd=7.33 as=2.73 ps=14.78 w=7 l=1
X202 a_n2140_13878.t13 a_n2318_13878.t42 a_n2318_13878.t43 vdd.t123 sky130_fd_pr__pfet_01v8 ad=1.485 pd=9.33 as=1.485 ps=9.33 w=9 l=0.5
X203 gnd.t259 commonsourceibias.t64 commonsourceibias.t65 gnd.t203 sky130_fd_pr__nfet_01v8 ad=1.155 pd=7.33 as=1.155 ps=7.33 w=7 l=1
X204 gnd.t258 commonsourceibias.t125 CSoutput.t139 gnd.t231 sky130_fd_pr__nfet_01v8 ad=1.155 pd=7.33 as=1.155 ps=7.33 w=7 l=1
X205 gnd.t257 commonsourceibias.t126 CSoutput.t138 gnd.t241 sky130_fd_pr__nfet_01v8 ad=2.73 pd=14.78 as=1.155 ps=7.33 w=7 l=1
X206 vdd.t216 a_n7636_8799.t77 CSoutput.t171 vdd.t174 sky130_fd_pr__pfet_01v8 ad=1.32 pd=8.33 as=1.32 ps=8.33 w=8 l=0.5
X207 a_n2903_n3924.t30 minus.t11 a_n2318_13878.t8 gnd.t12 sky130_fd_pr__nfet_01v8 ad=1.155 pd=7.33 as=1.155 ps=7.33 w=7 l=0.9
X208 gnd.t256 commonsourceibias.t127 CSoutput.t137 gnd.t253 sky130_fd_pr__nfet_01v8 ad=1.155 pd=7.33 as=1.155 ps=7.33 w=7 l=1
X209 a_n2318_8322.t20 a_n2318_13878.t63 a_n7636_8799.t11 vdd.t107 sky130_fd_pr__pfet_01v8 ad=1.485 pd=9.33 as=1.485 ps=9.33 w=9 l=0.5
X210 vdd.t91 CSoutput.t186 output.t12 gnd.t25 sky130_fd_pr__nfet_01v8 ad=0.825 pd=5.33 as=0.825 ps=5.33 w=5 l=1
X211 CSoutput.t35 a_n7636_8799.t78 vdd.t215 vdd.t176 sky130_fd_pr__pfet_01v8 ad=1.32 pd=8.33 as=1.32 ps=8.33 w=8 l=0.5
X212 diffpairibias.t7 diffpairibias.t6 gnd.t154 gnd.t153 sky130_fd_pr__nfet_01v8 ad=2.73 pd=14.78 as=2.73 ps=14.78 w=7 l=1
X213 CSoutput.t136 commonsourceibias.t128 gnd.t255 gnd.t175 sky130_fd_pr__nfet_01v8 ad=1.155 pd=7.33 as=1.155 ps=7.33 w=7 l=1
X214 vdd.t214 a_n7636_8799.t79 CSoutput.t59 vdd.t213 sky130_fd_pr__pfet_01v8 ad=1.32 pd=8.33 as=1.32 ps=8.33 w=8 l=0.5
X215 vdd.t102 a_n2318_13878.t64 a_n2318_8322.t7 vdd.t101 sky130_fd_pr__pfet_01v8 ad=1.485 pd=9.33 as=3.51 ps=18.78 w=9 l=0.5
X216 gnd.t254 commonsourceibias.t62 commonsourceibias.t63 gnd.t253 sky130_fd_pr__nfet_01v8 ad=1.155 pd=7.33 as=1.155 ps=7.33 w=7 l=1
X217 vdd.t212 a_n7636_8799.t80 CSoutput.t76 vdd.t179 sky130_fd_pr__pfet_01v8 ad=3.12 pd=16.78 as=1.32 ps=8.33 w=8 l=0.5
X218 vdd.t211 a_n7636_8799.t81 CSoutput.t14 vdd.t210 sky130_fd_pr__pfet_01v8 ad=1.32 pd=8.33 as=1.32 ps=8.33 w=8 l=0.5
X219 gnd.t104 gnd.t102 gnd.t103 gnd.t76 sky130_fd_pr__nfet_01v8 ad=2.73 pd=14.78 as=0 ps=0 w=7 l=1
X220 CSoutput.t135 commonsourceibias.t129 gnd.t252 gnd.t226 sky130_fd_pr__nfet_01v8 ad=1.155 pd=7.33 as=1.155 ps=7.33 w=7 l=1
X221 plus.t2 gnd.t99 gnd.t101 gnd.t100 sky130_fd_pr__nfet_01v8 ad=0.165 pd=1.33 as=0.165 ps=1.33 w=1 l=0.5
X222 gnd.t98 gnd.t96 minus.t1 gnd.t97 sky130_fd_pr__nfet_01v8 ad=0.39 pd=2.78 as=0.165 ps=1.33 w=1 l=0.5
X223 gnd.t251 commonsourceibias.t130 CSoutput.t134 gnd.t181 sky130_fd_pr__nfet_01v8 ad=1.155 pd=7.33 as=1.155 ps=7.33 w=7 l=1
X224 CSoutput.t93 commonsourceibias.t131 gnd.t250 gnd.t205 sky130_fd_pr__nfet_01v8 ad=1.155 pd=7.33 as=1.155 ps=7.33 w=7 l=1
X225 a_n2140_13878.t3 a_n2318_13878.t65 vdd.t104 vdd.t103 sky130_fd_pr__pfet_01v8 ad=3.51 pd=18.78 as=1.485 ps=9.33 w=9 l=0.5
X226 vdd.t209 a_n7636_8799.t82 CSoutput.t21 vdd.t191 sky130_fd_pr__pfet_01v8 ad=1.32 pd=8.33 as=1.32 ps=8.33 w=8 l=0.5
X227 CSoutput.t26 a_n7636_8799.t83 vdd.t208 vdd.t205 sky130_fd_pr__pfet_01v8 ad=1.32 pd=8.33 as=1.32 ps=8.33 w=8 l=0.5
X228 CSoutput.t6 a_n7636_8799.t84 vdd.t207 vdd.t189 sky130_fd_pr__pfet_01v8 ad=1.32 pd=8.33 as=1.32 ps=8.33 w=8 l=0.5
X229 gnd.t249 commonsourceibias.t10 commonsourceibias.t11 gnd.t216 sky130_fd_pr__nfet_01v8 ad=1.155 pd=7.33 as=1.155 ps=7.33 w=7 l=1
X230 vdd.t40 vdd.t37 vdd.t39 vdd.t38 sky130_fd_pr__pfet_01v8 ad=3.12 pd=16.78 as=0 ps=0 w=8 l=0.5
X231 gnd.t95 gnd.t92 gnd.t94 gnd.t93 sky130_fd_pr__nfet_01v8 ad=2.73 pd=14.78 as=0 ps=0 w=7 l=1
X232 a_n2903_n3924.t37 diffpairibias.t21 gnd.t337 gnd.t336 sky130_fd_pr__nfet_01v8 ad=2.73 pd=14.78 as=2.73 ps=14.78 w=7 l=1
X233 CSoutput.t92 commonsourceibias.t132 gnd.t248 gnd.t222 sky130_fd_pr__nfet_01v8 ad=1.155 pd=7.33 as=1.155 ps=7.33 w=7 l=1
X234 vdd.t36 vdd.t33 vdd.t35 vdd.t34 sky130_fd_pr__pfet_01v8 ad=3.12 pd=16.78 as=0 ps=0 w=8 l=0.5
X235 vdd.t1 a_n2318_13878.t66 a_n2318_8322.t6 vdd.t0 sky130_fd_pr__pfet_01v8 ad=1.485 pd=9.33 as=1.485 ps=9.33 w=9 l=0.5
X236 a_n2318_8322.t19 a_n2318_13878.t67 a_n7636_8799.t3 vdd.t2 sky130_fd_pr__pfet_01v8 ad=1.485 pd=9.33 as=1.485 ps=9.33 w=9 l=0.5
X237 CSoutput.t187 a_n2318_8322.t1 sky130_fd_pr__cap_mim_m3_1 l=12 w=12
X238 CSoutput.t15 a_n7636_8799.t85 vdd.t206 vdd.t205 sky130_fd_pr__pfet_01v8 ad=1.32 pd=8.33 as=1.32 ps=8.33 w=8 l=0.5
X239 a_n7636_8799.t6 plus.t17 a_n2903_n3924.t13 gnd.t14 sky130_fd_pr__nfet_01v8 ad=1.155 pd=7.33 as=1.155 ps=7.33 w=7 l=0.9
X240 vdd.t204 a_n7636_8799.t86 CSoutput.t37 vdd.t140 sky130_fd_pr__pfet_01v8 ad=1.32 pd=8.33 as=1.32 ps=8.33 w=8 l=0.5
X241 a_n2318_13878.t46 minus.t12 a_n2903_n3924.t36 gnd.t148 sky130_fd_pr__nfet_01v8 ad=1.155 pd=7.33 as=1.155 ps=7.33 w=7 l=0.9
X242 CSoutput.t69 a_n7636_8799.t87 vdd.t203 vdd.t158 sky130_fd_pr__pfet_01v8 ad=1.32 pd=8.33 as=1.32 ps=8.33 w=8 l=0.5
X243 CSoutput.t91 commonsourceibias.t133 gnd.t247 gnd.t183 sky130_fd_pr__nfet_01v8 ad=1.155 pd=7.33 as=1.155 ps=7.33 w=7 l=1
X244 a_n2903_n3924.t9 minus.t13 a_n2318_13878.t6 gnd.t10 sky130_fd_pr__nfet_01v8 ad=2.73 pd=14.78 as=1.155 ps=7.33 w=7 l=0.9
X245 vdd.t202 a_n7636_8799.t88 CSoutput.t39 vdd.t184 sky130_fd_pr__pfet_01v8 ad=1.32 pd=8.33 as=1.32 ps=8.33 w=8 l=0.5
X246 gnd.t246 commonsourceibias.t134 CSoutput.t90 gnd.t245 sky130_fd_pr__nfet_01v8 ad=1.155 pd=7.33 as=1.155 ps=7.33 w=7 l=1
X247 vdd.t201 a_n7636_8799.t89 CSoutput.t1 vdd.t152 sky130_fd_pr__pfet_01v8 ad=1.32 pd=8.33 as=1.32 ps=8.33 w=8 l=0.5