* NGSPICE file created from opamp268.ext - technology: sky130A

.subckt opamp268 gnd CSoutput output vdd plus minus commonsourceibias outputibias
+ diffpairibias
X0 a_n1808_13878.t17 a_n1986_13878.t41 a_n1986_13878.t42 vdd.t178 sky130_fd_pr__pfet_01v8 ad=1.485 pd=9.33 as=1.485 ps=9.33 w=9 l=0.5
X1 a_n1808_13878.t0 a_n1986_13878.t48 vdd.t189 vdd.t188 sky130_fd_pr__pfet_01v8 ad=1.485 pd=9.33 as=1.485 ps=9.33 w=9 l=0.5
X2 CSoutput.t133 a_n5644_8799.t36 vdd.t14 vdd.t8 sky130_fd_pr__pfet_01v8 ad=1.32 pd=8.33 as=1.32 ps=8.33 w=8 l=0.5
X3 CSoutput.t20 commonsourceibias.t64 gnd.t357 gnd.t250 sky130_fd_pr__nfet_01v8 ad=1.155 pd=7.33 as=2.73 ps=14.78 w=7 l=1
X4 gnd.t356 commonsourceibias.t42 commonsourceibias.t43 gnd.t279 sky130_fd_pr__nfet_01v8 ad=1.155 pd=7.33 as=1.155 ps=7.33 w=7 l=1
X5 gnd.t355 commonsourceibias.t65 CSoutput.t21 gnd.t204 sky130_fd_pr__nfet_01v8 ad=1.155 pd=7.33 as=1.155 ps=7.33 w=7 l=1
X6 commonsourceibias.t41 commonsourceibias.t40 gnd.t354 gnd.t221 sky130_fd_pr__nfet_01v8 ad=1.155 pd=7.33 as=1.155 ps=7.33 w=7 l=1
X7 vdd.t123 vdd.t121 vdd.t122 vdd.t75 sky130_fd_pr__pfet_01v8 ad=3.12 pd=16.78 as=0 ps=0 w=8 l=0.5
X8 a_n3827_n3924.t53 diffpairibias.t20 gnd.t361 gnd.t360 sky130_fd_pr__nfet_01v8 ad=2.73 pd=14.78 as=2.73 ps=14.78 w=7 l=1
X9 gnd.t353 commonsourceibias.t50 commonsourceibias.t51 gnd.t210 sky130_fd_pr__nfet_01v8 ad=1.155 pd=7.33 as=1.155 ps=7.33 w=7 l=1
X10 a_n1986_8322.t21 a_n1986_13878.t49 a_n5644_8799.t21 vdd.t187 sky130_fd_pr__pfet_01v8 ad=1.485 pd=9.33 as=1.485 ps=9.33 w=9 l=0.5
X11 gnd.t352 commonsourceibias.t48 commonsourceibias.t49 gnd.t200 sky130_fd_pr__nfet_01v8 ad=1.155 pd=7.33 as=1.155 ps=7.33 w=7 l=1
X12 gnd.t131 gnd.t129 gnd.t130 gnd.t51 sky130_fd_pr__nfet_01v8 ad=2.73 pd=14.78 as=0 ps=0 w=7 l=0.5
X13 gnd.t351 commonsourceibias.t66 CSoutput.t69 gnd.t271 sky130_fd_pr__nfet_01v8 ad=1.155 pd=7.33 as=1.155 ps=7.33 w=7 l=1
X14 commonsourceibias.t47 commonsourceibias.t46 gnd.t350 gnd.t236 sky130_fd_pr__nfet_01v8 ad=1.155 pd=7.33 as=1.155 ps=7.33 w=7 l=1
X15 minus.t4 gnd.t118 gnd.t120 gnd.t119 sky130_fd_pr__nfet_01v8 ad=0.165 pd=1.33 as=0.165 ps=1.33 w=1 l=0.5
X16 gnd.t128 gnd.t127 plus.t4 gnd.t51 sky130_fd_pr__nfet_01v8 ad=0.165 pd=1.33 as=0.165 ps=1.33 w=1 l=0.5
X17 a_n5644_8799.t3 plus.t5 a_n3827_n3924.t5 gnd.t8 sky130_fd_pr__nfet_01v8 ad=1.155 pd=7.33 as=1.155 ps=7.33 w=7 l=0.5
X18 gnd.t126 gnd.t124 gnd.t125 gnd.t47 sky130_fd_pr__nfet_01v8 ad=2.73 pd=14.78 as=0 ps=0 w=7 l=0.5
X19 gnd.t123 gnd.t121 gnd.t122 gnd.t43 sky130_fd_pr__nfet_01v8 ad=2.73 pd=14.78 as=0 ps=0 w=7 l=1
X20 gnd.t117 gnd.t114 gnd.t116 gnd.t115 sky130_fd_pr__nfet_01v8 ad=2.34 pd=12.78 as=0 ps=0 w=6 l=2
X21 CSoutput.t132 a_n5644_8799.t37 vdd.t128 vdd.t0 sky130_fd_pr__pfet_01v8 ad=1.32 pd=8.33 as=3.12 ps=16.78 w=8 l=0.5
X22 vdd.t3 a_n5644_8799.t38 CSoutput.t131 vdd.t2 sky130_fd_pr__pfet_01v8 ad=3.12 pd=16.78 as=1.32 ps=8.33 w=8 l=0.5
X23 a_n5644_8799.t24 a_n1986_13878.t50 a_n1986_8322.t20 vdd.t147 sky130_fd_pr__pfet_01v8 ad=1.485 pd=9.33 as=3.51 ps=18.78 w=9 l=0.5
X24 vdd.t129 a_n5644_8799.t39 CSoutput.t130 vdd.t46 sky130_fd_pr__pfet_01v8 ad=1.32 pd=8.33 as=1.32 ps=8.33 w=8 l=0.5
X25 commonsourceibias.t45 commonsourceibias.t44 gnd.t349 gnd.t275 sky130_fd_pr__nfet_01v8 ad=1.155 pd=7.33 as=1.155 ps=7.33 w=7 l=1
X26 CSoutput.t129 a_n5644_8799.t40 vdd.t192 vdd.t39 sky130_fd_pr__pfet_01v8 ad=1.32 pd=8.33 as=3.12 ps=16.78 w=8 l=0.5
X27 gnd.t348 commonsourceibias.t67 CSoutput.t70 gnd.t214 sky130_fd_pr__nfet_01v8 ad=1.155 pd=7.33 as=1.155 ps=7.33 w=7 l=1
X28 CSoutput.t72 commonsourceibias.t68 gnd.t347 gnd.t231 sky130_fd_pr__nfet_01v8 ad=1.155 pd=7.33 as=1.155 ps=7.33 w=7 l=1
X29 a_n5644_8799.t35 plus.t6 a_n3827_n3924.t42 gnd.t370 sky130_fd_pr__nfet_01v8 ad=1.155 pd=7.33 as=1.155 ps=7.33 w=7 l=0.5
X30 vdd.t120 vdd.t118 vdd.t119 vdd.t53 sky130_fd_pr__pfet_01v8 ad=3.12 pd=16.78 as=0 ps=0 w=8 l=0.5
X31 CSoutput.t73 commonsourceibias.t69 gnd.t346 gnd.t281 sky130_fd_pr__nfet_01v8 ad=1.155 pd=7.33 as=1.155 ps=7.33 w=7 l=1
X32 CSoutput.t144 a_n1986_8322.t0 sky130_fd_pr__cap_mim_m3_1 l=12 w=12
X33 gnd.t345 commonsourceibias.t56 commonsourceibias.t57 gnd.t271 sky130_fd_pr__nfet_01v8 ad=1.155 pd=7.33 as=1.155 ps=7.33 w=7 l=1
X34 CSoutput.t128 a_n5644_8799.t41 vdd.t33 vdd.t24 sky130_fd_pr__pfet_01v8 ad=1.32 pd=8.33 as=1.32 ps=8.33 w=8 l=0.5
X35 a_n3827_n3924.t8 minus.t5 a_n1986_13878.t4 gnd.t10 sky130_fd_pr__nfet_01v8 ad=1.155 pd=7.33 as=1.155 ps=7.33 w=7 l=0.5
X36 a_n3827_n3924.t52 diffpairibias.t21 gnd.t134 gnd.t133 sky130_fd_pr__nfet_01v8 ad=2.73 pd=14.78 as=2.73 ps=14.78 w=7 l=1
X37 commonsourceibias.t55 commonsourceibias.t54 gnd.t344 gnd.t202 sky130_fd_pr__nfet_01v8 ad=1.155 pd=7.33 as=1.155 ps=7.33 w=7 l=1
X38 CSoutput.t65 commonsourceibias.t70 gnd.t343 gnd.t281 sky130_fd_pr__nfet_01v8 ad=1.155 pd=7.33 as=1.155 ps=7.33 w=7 l=1
X39 a_n1986_13878.t17 minus.t6 a_n3827_n3924.t35 gnd.t155 sky130_fd_pr__nfet_01v8 ad=1.155 pd=7.33 as=1.155 ps=7.33 w=7 l=0.5
X40 a_n3827_n3924.t3 plus.t7 a_n5644_8799.t1 gnd.t7 sky130_fd_pr__nfet_01v8 ad=1.155 pd=7.33 as=1.155 ps=7.33 w=7 l=0.5
X41 a_n3827_n3924.t14 plus.t8 a_n5644_8799.t6 gnd.t154 sky130_fd_pr__nfet_01v8 ad=1.155 pd=7.33 as=1.155 ps=7.33 w=7 l=0.5
X42 a_n3827_n3924.t18 minus.t7 a_n1986_13878.t10 gnd.t158 sky130_fd_pr__nfet_01v8 ad=1.155 pd=7.33 as=1.155 ps=7.33 w=7 l=0.5
X43 CSoutput.t66 commonsourceibias.t71 gnd.t339 gnd.t216 sky130_fd_pr__nfet_01v8 ad=1.155 pd=7.33 as=2.73 ps=14.78 w=7 l=1
X44 gnd.t342 commonsourceibias.t52 commonsourceibias.t53 gnd.t212 sky130_fd_pr__nfet_01v8 ad=1.155 pd=7.33 as=1.155 ps=7.33 w=7 l=1
X45 a_n1808_13878.t16 a_n1986_13878.t31 a_n1986_13878.t32 vdd.t154 sky130_fd_pr__pfet_01v8 ad=1.485 pd=9.33 as=3.51 ps=18.78 w=9 l=0.5
X46 a_n1986_13878.t34 a_n1986_13878.t33 a_n1808_13878.t15 vdd.t163 sky130_fd_pr__pfet_01v8 ad=1.485 pd=9.33 as=1.485 ps=9.33 w=9 l=0.5
X47 CSoutput.t127 a_n5644_8799.t42 vdd.t34 vdd.t10 sky130_fd_pr__pfet_01v8 ad=1.32 pd=8.33 as=1.32 ps=8.33 w=8 l=0.5
X48 vdd.t47 a_n5644_8799.t43 CSoutput.t126 vdd.t46 sky130_fd_pr__pfet_01v8 ad=1.32 pd=8.33 as=1.32 ps=8.33 w=8 l=0.5
X49 output.t19 outputibias.t8 gnd.t161 gnd.t160 sky130_fd_pr__nfet_01v8 ad=2.34 pd=12.78 as=2.34 ps=12.78 w=6 l=2
X50 CSoutput.t145 a_n1986_8322.t1 sky130_fd_pr__cap_mim_m3_1 l=12 w=12
X51 vdd.t117 vdd.t115 vdd.t116 vdd.t85 sky130_fd_pr__pfet_01v8 ad=3.51 pd=18.78 as=0 ps=0 w=9 l=0.5
X52 a_n3827_n3924.t17 minus.t8 a_n1986_13878.t9 gnd.t157 sky130_fd_pr__nfet_01v8 ad=1.155 pd=7.33 as=1.155 ps=7.33 w=7 l=0.5
X53 vdd.t126 CSoutput.t146 output.t15 gnd.t182 sky130_fd_pr__nfet_01v8 ad=0.825 pd=5.33 as=0.825 ps=5.33 w=5 l=1
X54 CSoutput.t84 commonsourceibias.t72 gnd.t341 gnd.t242 sky130_fd_pr__nfet_01v8 ad=1.155 pd=7.33 as=1.155 ps=7.33 w=7 l=1
X55 diffpairibias.t19 diffpairibias.t18 gnd.t2 gnd.t1 sky130_fd_pr__nfet_01v8 ad=2.73 pd=14.78 as=2.73 ps=14.78 w=7 l=1
X56 vdd.t114 vdd.t112 vdd.t113 vdd.t64 sky130_fd_pr__pfet_01v8 ad=3.12 pd=16.78 as=0 ps=0 w=8 l=0.5
X57 gnd.t113 gnd.t111 plus.t3 gnd.t112 sky130_fd_pr__nfet_01v8 ad=0.165 pd=1.33 as=0.39 ps=2.78 w=1 l=0.5
X58 CSoutput.t85 commonsourceibias.t73 gnd.t340 gnd.t263 sky130_fd_pr__nfet_01v8 ad=1.155 pd=7.33 as=1.155 ps=7.33 w=7 l=1
X59 gnd.t110 gnd.t108 gnd.t109 gnd.t20 sky130_fd_pr__nfet_01v8 ad=2.73 pd=14.78 as=0 ps=0 w=7 l=1
X60 a_n1986_13878.t47 minus.t9 a_n3827_n3924.t57 gnd.t188 sky130_fd_pr__nfet_01v8 ad=1.155 pd=7.33 as=2.73 ps=14.78 w=7 l=0.5
X61 CSoutput.t82 commonsourceibias.t74 gnd.t338 gnd.t293 sky130_fd_pr__nfet_01v8 ad=1.155 pd=7.33 as=1.155 ps=7.33 w=7 l=1
X62 commonsourceibias.t59 commonsourceibias.t58 gnd.t337 gnd.t250 sky130_fd_pr__nfet_01v8 ad=1.155 pd=7.33 as=2.73 ps=14.78 w=7 l=1
X63 vdd.t124 a_n5644_8799.t44 CSoutput.t125 vdd.t4 sky130_fd_pr__pfet_01v8 ad=1.32 pd=8.33 as=1.32 ps=8.33 w=8 l=0.5
X64 CSoutput.t124 a_n5644_8799.t45 vdd.t40 vdd.t39 sky130_fd_pr__pfet_01v8 ad=1.32 pd=8.33 as=3.12 ps=16.78 w=8 l=0.5
X65 vdd.t125 a_n5644_8799.t46 CSoutput.t123 vdd.t46 sky130_fd_pr__pfet_01v8 ad=1.32 pd=8.33 as=1.32 ps=8.33 w=8 l=0.5
X66 diffpairibias.t17 diffpairibias.t16 gnd.t138 gnd.t137 sky130_fd_pr__nfet_01v8 ad=2.73 pd=14.78 as=2.73 ps=14.78 w=7 l=1
X67 gnd.t107 gnd.t105 gnd.t106 gnd.t20 sky130_fd_pr__nfet_01v8 ad=2.73 pd=14.78 as=0 ps=0 w=7 l=1
X68 CSoutput.t122 a_n5644_8799.t47 vdd.t131 vdd.t35 sky130_fd_pr__pfet_01v8 ad=1.32 pd=8.33 as=1.32 ps=8.33 w=8 l=0.5
X69 vdd.t26 a_n5644_8799.t48 CSoutput.t121 vdd.t20 sky130_fd_pr__pfet_01v8 ad=1.32 pd=8.33 as=1.32 ps=8.33 w=8 l=0.5
X70 CSoutput.t83 commonsourceibias.t75 gnd.t336 gnd.t263 sky130_fd_pr__nfet_01v8 ad=1.155 pd=7.33 as=1.155 ps=7.33 w=7 l=1
X71 CSoutput.t120 a_n5644_8799.t49 vdd.t36 vdd.t35 sky130_fd_pr__pfet_01v8 ad=1.32 pd=8.33 as=1.32 ps=8.33 w=8 l=0.5
X72 CSoutput.t119 a_n5644_8799.t50 vdd.t25 vdd.t24 sky130_fd_pr__pfet_01v8 ad=1.32 pd=8.33 as=1.32 ps=8.33 w=8 l=0.5
X73 plus.t2 gnd.t102 gnd.t104 gnd.t103 sky130_fd_pr__nfet_01v8 ad=0.165 pd=1.33 as=0.165 ps=1.33 w=1 l=0.5
X74 vdd.t45 a_n5644_8799.t51 CSoutput.t118 vdd.t37 sky130_fd_pr__pfet_01v8 ad=1.32 pd=8.33 as=1.32 ps=8.33 w=8 l=0.5
X75 gnd.t335 commonsourceibias.t76 CSoutput.t137 gnd.t244 sky130_fd_pr__nfet_01v8 ad=1.155 pd=7.33 as=1.155 ps=7.33 w=7 l=1
X76 gnd.t334 commonsourceibias.t77 CSoutput.t138 gnd.t223 sky130_fd_pr__nfet_01v8 ad=2.73 pd=14.78 as=1.155 ps=7.33 w=7 l=1
X77 a_n5644_8799.t20 plus.t9 a_n3827_n3924.t39 gnd.t5 sky130_fd_pr__nfet_01v8 ad=1.155 pd=7.33 as=1.155 ps=7.33 w=7 l=0.5
X78 CSoutput.t142 commonsourceibias.t78 gnd.t333 gnd.t260 sky130_fd_pr__nfet_01v8 ad=1.155 pd=7.33 as=1.155 ps=7.33 w=7 l=1
X79 gnd.t101 gnd.t98 gnd.t100 gnd.t99 sky130_fd_pr__nfet_01v8 ad=2.34 pd=12.78 as=0 ps=0 w=6 l=2
X80 gnd.t97 gnd.t95 gnd.t96 gnd.t43 sky130_fd_pr__nfet_01v8 ad=2.73 pd=14.78 as=0 ps=0 w=7 l=1
X81 a_n3827_n3924.t51 diffpairibias.t22 gnd.t150 gnd.t149 sky130_fd_pr__nfet_01v8 ad=2.73 pd=14.78 as=2.73 ps=14.78 w=7 l=1
X82 vdd.t16 a_n5644_8799.t52 CSoutput.t117 vdd.t2 sky130_fd_pr__pfet_01v8 ad=3.12 pd=16.78 as=1.32 ps=8.33 w=8 l=0.5
X83 a_n5644_8799.t32 a_n1986_13878.t51 a_n1986_8322.t19 vdd.t177 sky130_fd_pr__pfet_01v8 ad=1.485 pd=9.33 as=1.485 ps=9.33 w=9 l=0.5
X84 a_n1986_13878.t38 a_n1986_13878.t37 a_n1808_13878.t14 vdd.t187 sky130_fd_pr__pfet_01v8 ad=1.485 pd=9.33 as=1.485 ps=9.33 w=9 l=0.5
X85 a_n3827_n3924.t21 minus.t10 a_n1986_13878.t12 gnd.t162 sky130_fd_pr__nfet_01v8 ad=1.155 pd=7.33 as=1.155 ps=7.33 w=7 l=0.5
X86 CSoutput.t143 commonsourceibias.t79 gnd.t332 gnd.t206 sky130_fd_pr__nfet_01v8 ad=1.155 pd=7.33 as=1.155 ps=7.33 w=7 l=1
X87 a_n1986_13878.t22 a_n1986_13878.t21 a_n1808_13878.t13 vdd.t150 sky130_fd_pr__pfet_01v8 ad=3.51 pd=18.78 as=1.485 ps=9.33 w=9 l=0.5
X88 vdd.t38 a_n5644_8799.t53 CSoutput.t116 vdd.t37 sky130_fd_pr__pfet_01v8 ad=1.32 pd=8.33 as=1.32 ps=8.33 w=8 l=0.5
X89 a_n3827_n3924.t38 plus.t10 a_n5644_8799.t19 gnd.t9 sky130_fd_pr__nfet_01v8 ad=1.155 pd=7.33 as=1.155 ps=7.33 w=7 l=0.5
X90 a_n1986_13878.t16 minus.t11 a_n3827_n3924.t30 gnd.t148 sky130_fd_pr__nfet_01v8 ad=1.155 pd=7.33 as=1.155 ps=7.33 w=7 l=0.5
X91 outputibias.t7 outputibias.t6 gnd.t372 gnd.t371 sky130_fd_pr__nfet_01v8 ad=2.34 pd=12.78 as=2.34 ps=12.78 w=6 l=2
X92 CSoutput.t76 commonsourceibias.t80 gnd.t331 gnd.t221 sky130_fd_pr__nfet_01v8 ad=1.155 pd=7.33 as=1.155 ps=7.33 w=7 l=1
X93 gnd.t330 commonsourceibias.t81 CSoutput.t77 gnd.t240 sky130_fd_pr__nfet_01v8 ad=1.155 pd=7.33 as=1.155 ps=7.33 w=7 l=1
X94 gnd.t94 gnd.t92 gnd.t93 gnd.t24 sky130_fd_pr__nfet_01v8 ad=2.73 pd=14.78 as=0 ps=0 w=7 l=1
X95 commonsourceibias.t63 commonsourceibias.t62 gnd.t329 gnd.t231 sky130_fd_pr__nfet_01v8 ad=1.155 pd=7.33 as=1.155 ps=7.33 w=7 l=1
X96 vdd.t111 vdd.t109 vdd.t110 vdd.t64 sky130_fd_pr__pfet_01v8 ad=3.12 pd=16.78 as=0 ps=0 w=8 l=0.5
X97 CSoutput.t67 commonsourceibias.t82 gnd.t328 gnd.t281 sky130_fd_pr__nfet_01v8 ad=1.155 pd=7.33 as=1.155 ps=7.33 w=7 l=1
X98 gnd.t327 commonsourceibias.t60 commonsourceibias.t61 gnd.t225 sky130_fd_pr__nfet_01v8 ad=1.155 pd=7.33 as=1.155 ps=7.33 w=7 l=1
X99 a_n3827_n3924.t24 minus.t12 a_n1986_13878.t14 gnd.t166 sky130_fd_pr__nfet_01v8 ad=2.73 pd=14.78 as=1.155 ps=7.33 w=7 l=0.5
X100 diffpairibias.t15 diffpairibias.t14 gnd.t142 gnd.t141 sky130_fd_pr__nfet_01v8 ad=2.73 pd=14.78 as=2.73 ps=14.78 w=7 l=1
X101 vdd.t135 a_n5644_8799.t54 CSoutput.t115 vdd.t4 sky130_fd_pr__pfet_01v8 ad=1.32 pd=8.33 as=1.32 ps=8.33 w=8 l=0.5
X102 vdd.t108 vdd.t106 vdd.t107 vdd.t93 sky130_fd_pr__pfet_01v8 ad=3.51 pd=18.78 as=0 ps=0 w=9 l=0.5
X103 vdd.t105 vdd.t102 vdd.t104 vdd.t103 sky130_fd_pr__pfet_01v8 ad=3.51 pd=18.78 as=0 ps=0 w=9 l=0.5
X104 gnd.t326 commonsourceibias.t83 CSoutput.t68 gnd.t227 sky130_fd_pr__nfet_01v8 ad=2.73 pd=14.78 as=1.155 ps=7.33 w=7 l=1
X105 vdd.t101 vdd.t99 vdd.t100 vdd.t89 sky130_fd_pr__pfet_01v8 ad=3.51 pd=18.78 as=0 ps=0 w=9 l=0.5
X106 vdd.t98 vdd.t96 vdd.t97 vdd.t49 sky130_fd_pr__pfet_01v8 ad=3.51 pd=18.78 as=0 ps=0 w=9 l=0.5
X107 a_n1986_8322.t9 a_n1986_13878.t52 vdd.t184 vdd.t183 sky130_fd_pr__pfet_01v8 ad=1.485 pd=9.33 as=1.485 ps=9.33 w=9 l=0.5
X108 vdd.t186 a_n1986_13878.t53 a_n1986_8322.t8 vdd.t185 sky130_fd_pr__pfet_01v8 ad=1.485 pd=9.33 as=1.485 ps=9.33 w=9 l=0.5
X109 CSoutput.t56 commonsourceibias.t84 gnd.t315 gnd.t275 sky130_fd_pr__nfet_01v8 ad=1.155 pd=7.33 as=1.155 ps=7.33 w=7 l=1
X110 output.t14 CSoutput.t147 vdd.t127 gnd.t181 sky130_fd_pr__nfet_01v8 ad=0.825 pd=5.33 as=0.825 ps=5.33 w=5 l=1
X111 gnd.t325 commonsourceibias.t20 commonsourceibias.t21 gnd.t219 sky130_fd_pr__nfet_01v8 ad=1.155 pd=7.33 as=1.155 ps=7.33 w=7 l=1
X112 CSoutput.t57 commonsourceibias.t85 gnd.t324 gnd.t234 sky130_fd_pr__nfet_01v8 ad=1.155 pd=7.33 as=1.155 ps=7.33 w=7 l=1
X113 CSoutput.t114 a_n5644_8799.t55 vdd.t130 vdd.t35 sky130_fd_pr__pfet_01v8 ad=1.32 pd=8.33 as=1.32 ps=8.33 w=8 l=0.5
X114 a_n1986_13878.t7 minus.t13 a_n3827_n3924.t13 gnd.t151 sky130_fd_pr__nfet_01v8 ad=1.155 pd=7.33 as=1.155 ps=7.33 w=7 l=0.5
X115 gnd.t314 commonsourceibias.t86 CSoutput.t54 gnd.t279 sky130_fd_pr__nfet_01v8 ad=1.155 pd=7.33 as=1.155 ps=7.33 w=7 l=1
X116 a_n3827_n3924.t50 diffpairibias.t23 gnd.t4 gnd.t3 sky130_fd_pr__nfet_01v8 ad=2.73 pd=14.78 as=2.73 ps=14.78 w=7 l=1
X117 vdd.t143 a_n5644_8799.t56 CSoutput.t113 vdd.t37 sky130_fd_pr__pfet_01v8 ad=1.32 pd=8.33 as=1.32 ps=8.33 w=8 l=0.5
X118 vdd.t182 a_n1986_13878.t54 a_n1808_13878.t5 vdd.t181 sky130_fd_pr__pfet_01v8 ad=1.485 pd=9.33 as=1.485 ps=9.33 w=9 l=0.5
X119 gnd.t91 gnd.t89 minus.t3 gnd.t90 sky130_fd_pr__nfet_01v8 ad=0.165 pd=1.33 as=0.39 ps=2.78 w=1 l=0.5
X120 a_n3827_n3924.t4 plus.t11 a_n5644_8799.t2 gnd.t0 sky130_fd_pr__nfet_01v8 ad=1.155 pd=7.33 as=1.155 ps=7.33 w=7 l=0.5
X121 commonsourceibias.t19 commonsourceibias.t18 gnd.t323 gnd.t216 sky130_fd_pr__nfet_01v8 ad=1.155 pd=7.33 as=2.73 ps=14.78 w=7 l=1
X122 gnd.t322 commonsourceibias.t87 CSoutput.t55 gnd.t254 sky130_fd_pr__nfet_01v8 ad=1.155 pd=7.33 as=1.155 ps=7.33 w=7 l=1
X123 vdd.t95 vdd.t92 vdd.t94 vdd.t93 sky130_fd_pr__pfet_01v8 ad=3.51 pd=18.78 as=0 ps=0 w=9 l=0.5
X124 gnd.t321 commonsourceibias.t88 CSoutput.t35 gnd.t204 sky130_fd_pr__nfet_01v8 ad=1.155 pd=7.33 as=1.155 ps=7.33 w=7 l=1
X125 output.t13 CSoutput.t148 vdd.t197 gnd.t180 sky130_fd_pr__nfet_01v8 ad=0.825 pd=5.33 as=0.825 ps=5.33 w=5 l=1
X126 CSoutput.t36 commonsourceibias.t89 gnd.t320 gnd.t242 sky130_fd_pr__nfet_01v8 ad=1.155 pd=7.33 as=1.155 ps=7.33 w=7 l=1
X127 gnd.t319 commonsourceibias.t16 commonsourceibias.t17 gnd.t214 sky130_fd_pr__nfet_01v8 ad=1.155 pd=7.33 as=1.155 ps=7.33 w=7 l=1
X128 vdd.t91 vdd.t88 vdd.t90 vdd.t89 sky130_fd_pr__pfet_01v8 ad=3.51 pd=18.78 as=0 ps=0 w=9 l=0.5
X129 vdd.t190 a_n5644_8799.t57 CSoutput.t112 vdd.t2 sky130_fd_pr__pfet_01v8 ad=3.12 pd=16.78 as=1.32 ps=8.33 w=8 l=0.5
X130 CSoutput.t3 commonsourceibias.t90 gnd.t318 gnd.t260 sky130_fd_pr__nfet_01v8 ad=1.155 pd=7.33 as=1.155 ps=7.33 w=7 l=1
X131 a_n5644_8799.t31 a_n1986_13878.t55 a_n1986_8322.t18 vdd.t155 sky130_fd_pr__pfet_01v8 ad=1.485 pd=9.33 as=1.485 ps=9.33 w=9 l=0.5
X132 a_n1986_8322.t7 a_n1986_13878.t56 vdd.t180 vdd.t179 sky130_fd_pr__pfet_01v8 ad=3.51 pd=18.78 as=1.485 ps=9.33 w=9 l=0.5
X133 vdd.t87 vdd.t84 vdd.t86 vdd.t85 sky130_fd_pr__pfet_01v8 ad=3.51 pd=18.78 as=0 ps=0 w=9 l=0.5
X134 a_n1986_13878.t6 minus.t14 a_n3827_n3924.t10 gnd.t145 sky130_fd_pr__nfet_01v8 ad=1.155 pd=7.33 as=1.155 ps=7.33 w=7 l=0.5
X135 a_n5644_8799.t8 plus.t12 a_n3827_n3924.t20 gnd.t132 sky130_fd_pr__nfet_01v8 ad=1.155 pd=7.33 as=2.73 ps=14.78 w=7 l=0.5
X136 gnd.t317 commonsourceibias.t91 CSoutput.t4 gnd.t229 sky130_fd_pr__nfet_01v8 ad=1.155 pd=7.33 as=1.155 ps=7.33 w=7 l=1
X137 commonsourceibias.t25 commonsourceibias.t24 gnd.t316 gnd.t198 sky130_fd_pr__nfet_01v8 ad=1.155 pd=7.33 as=1.155 ps=7.33 w=7 l=1
X138 a_n1986_13878.t24 a_n1986_13878.t23 a_n1808_13878.t12 vdd.t166 sky130_fd_pr__pfet_01v8 ad=1.485 pd=9.33 as=1.485 ps=9.33 w=9 l=0.5
X139 gnd.t88 gnd.t86 gnd.t87 gnd.t32 sky130_fd_pr__nfet_01v8 ad=2.73 pd=14.78 as=0 ps=0 w=7 l=1
X140 diffpairibias.t13 diffpairibias.t12 gnd.t190 gnd.t189 sky130_fd_pr__nfet_01v8 ad=2.73 pd=14.78 as=2.73 ps=14.78 w=7 l=1
X141 a_n5644_8799.t26 a_n1986_13878.t57 a_n1986_8322.t17 vdd.t178 sky130_fd_pr__pfet_01v8 ad=1.485 pd=9.33 as=1.485 ps=9.33 w=9 l=0.5
X142 gnd.t313 commonsourceibias.t22 commonsourceibias.t23 gnd.t204 sky130_fd_pr__nfet_01v8 ad=1.155 pd=7.33 as=1.155 ps=7.33 w=7 l=1
X143 a_n1808_13878.t11 a_n1986_13878.t35 a_n1986_13878.t36 vdd.t177 sky130_fd_pr__pfet_01v8 ad=1.485 pd=9.33 as=1.485 ps=9.33 w=9 l=0.5
X144 gnd.t312 commonsourceibias.t92 CSoutput.t14 gnd.t238 sky130_fd_pr__nfet_01v8 ad=1.155 pd=7.33 as=1.155 ps=7.33 w=7 l=1
X145 a_n3827_n3924.t56 minus.t15 a_n1986_13878.t46 gnd.t6 sky130_fd_pr__nfet_01v8 ad=2.73 pd=14.78 as=1.155 ps=7.33 w=7 l=0.5
X146 a_n3827_n3924.t19 minus.t16 a_n1986_13878.t11 gnd.t159 sky130_fd_pr__nfet_01v8 ad=1.155 pd=7.33 as=1.155 ps=7.33 w=7 l=0.5
X147 a_n5644_8799.t34 plus.t13 a_n3827_n3924.t41 gnd.t197 sky130_fd_pr__nfet_01v8 ad=1.155 pd=7.33 as=1.155 ps=7.33 w=7 l=0.5
X148 gnd.t311 commonsourceibias.t93 CSoutput.t15 gnd.t219 sky130_fd_pr__nfet_01v8 ad=1.155 pd=7.33 as=1.155 ps=7.33 w=7 l=1
X149 output.t12 CSoutput.t149 vdd.t198 gnd.t179 sky130_fd_pr__nfet_01v8 ad=0.825 pd=5.33 as=0.825 ps=5.33 w=5 l=1
X150 vdd.t176 a_n1986_13878.t58 a_n1986_8322.t6 vdd.t175 sky130_fd_pr__pfet_01v8 ad=1.485 pd=9.33 as=3.51 ps=18.78 w=9 l=0.5
X151 a_n1986_13878.t8 minus.t17 a_n3827_n3924.t16 gnd.t156 sky130_fd_pr__nfet_01v8 ad=1.155 pd=7.33 as=1.155 ps=7.33 w=7 l=0.5
X152 vdd.t83 vdd.t81 vdd.t82 vdd.t75 sky130_fd_pr__pfet_01v8 ad=3.12 pd=16.78 as=0 ps=0 w=8 l=0.5
X153 gnd.t85 gnd.t83 gnd.t84 gnd.t32 sky130_fd_pr__nfet_01v8 ad=2.73 pd=14.78 as=0 ps=0 w=7 l=1
X154 gnd.t82 gnd.t79 gnd.t81 gnd.t80 sky130_fd_pr__nfet_01v8 ad=1.95 pd=10.78 as=0 ps=0 w=5 l=1
X155 output.t18 outputibias.t9 gnd.t165 gnd.t164 sky130_fd_pr__nfet_01v8 ad=2.34 pd=12.78 as=2.34 ps=12.78 w=6 l=2
X156 gnd.t78 gnd.t76 gnd.t77 gnd.t43 sky130_fd_pr__nfet_01v8 ad=2.73 pd=14.78 as=0 ps=0 w=7 l=1
X157 CSoutput.t111 a_n5644_8799.t58 vdd.t44 vdd.t10 sky130_fd_pr__pfet_01v8 ad=1.32 pd=8.33 as=1.32 ps=8.33 w=8 l=0.5
X158 vdd.t136 a_n5644_8799.t59 CSoutput.t110 vdd.t29 sky130_fd_pr__pfet_01v8 ad=3.12 pd=16.78 as=1.32 ps=8.33 w=8 l=0.5
X159 CSoutput.t33 commonsourceibias.t94 gnd.t310 gnd.t206 sky130_fd_pr__nfet_01v8 ad=1.155 pd=7.33 as=1.155 ps=7.33 w=7 l=1
X160 vdd.t199 CSoutput.t150 output.t11 gnd.t178 sky130_fd_pr__nfet_01v8 ad=0.825 pd=5.33 as=0.825 ps=5.33 w=5 l=1
X161 outputibias.t5 outputibias.t4 gnd.t147 gnd.t146 sky130_fd_pr__nfet_01v8 ad=2.34 pd=12.78 as=2.34 ps=12.78 w=6 l=2
X162 gnd.t309 commonsourceibias.t95 CSoutput.t34 gnd.t240 sky130_fd_pr__nfet_01v8 ad=1.155 pd=7.33 as=1.155 ps=7.33 w=7 l=1
X163 gnd.t308 commonsourceibias.t96 CSoutput.t10 gnd.t244 sky130_fd_pr__nfet_01v8 ad=1.155 pd=7.33 as=1.155 ps=7.33 w=7 l=1
X164 a_n3827_n3924.t49 diffpairibias.t24 gnd.t187 gnd.t186 sky130_fd_pr__nfet_01v8 ad=2.73 pd=14.78 as=2.73 ps=14.78 w=7 l=1
X165 a_n1986_13878.t43 minus.t18 a_n3827_n3924.t43 gnd.t8 sky130_fd_pr__nfet_01v8 ad=1.155 pd=7.33 as=1.155 ps=7.33 w=7 l=0.5
X166 a_n3827_n3924.t48 diffpairibias.t25 gnd.t192 gnd.t191 sky130_fd_pr__nfet_01v8 ad=2.73 pd=14.78 as=2.73 ps=14.78 w=7 l=1
X167 outputibias.t3 outputibias.t2 gnd.t153 gnd.t152 sky130_fd_pr__nfet_01v8 ad=2.34 pd=12.78 as=2.34 ps=12.78 w=6 l=2
X168 vdd.t133 a_n5644_8799.t60 CSoutput.t109 vdd.t132 sky130_fd_pr__pfet_01v8 ad=1.32 pd=8.33 as=1.32 ps=8.33 w=8 l=0.5
X169 gnd.t75 gnd.t73 gnd.t74 gnd.t24 sky130_fd_pr__nfet_01v8 ad=2.73 pd=14.78 as=0 ps=0 w=7 l=1
X170 gnd.t72 gnd.t70 minus.t2 gnd.t71 sky130_fd_pr__nfet_01v8 ad=0.165 pd=1.33 as=0.165 ps=1.33 w=1 l=0.5
X171 gnd.t69 gnd.t67 gnd.t68 gnd.t24 sky130_fd_pr__nfet_01v8 ad=2.73 pd=14.78 as=0 ps=0 w=7 l=1
X172 CSoutput.t108 a_n5644_8799.t61 vdd.t142 vdd.t27 sky130_fd_pr__pfet_01v8 ad=1.32 pd=8.33 as=1.32 ps=8.33 w=8 l=0.5
X173 a_n1986_13878.t44 minus.t19 a_n3827_n3924.t54 gnd.t370 sky130_fd_pr__nfet_01v8 ad=1.155 pd=7.33 as=1.155 ps=7.33 w=7 l=0.5
X174 CSoutput.t23 commonsourceibias.t97 gnd.t307 gnd.t293 sky130_fd_pr__nfet_01v8 ad=1.155 pd=7.33 as=1.155 ps=7.33 w=7 l=1
X175 vdd.t17 CSoutput.t151 output.t10 gnd.t177 sky130_fd_pr__nfet_01v8 ad=0.825 pd=5.33 as=0.825 ps=5.33 w=5 l=1
X176 a_n1808_13878.t2 a_n1986_13878.t59 vdd.t174 vdd.t173 sky130_fd_pr__pfet_01v8 ad=1.485 pd=9.33 as=1.485 ps=9.33 w=9 l=0.5
X177 gnd.t66 gnd.t64 gnd.t65 gnd.t20 sky130_fd_pr__nfet_01v8 ad=2.73 pd=14.78 as=0 ps=0 w=7 l=1
X178 gnd.t306 commonsourceibias.t98 CSoutput.t13 gnd.t254 sky130_fd_pr__nfet_01v8 ad=1.155 pd=7.33 as=1.155 ps=7.33 w=7 l=1
X179 output.t9 CSoutput.t152 vdd.t18 gnd.t176 sky130_fd_pr__nfet_01v8 ad=0.825 pd=5.33 as=0.825 ps=5.33 w=5 l=1
X180 diffpairibias.t11 diffpairibias.t10 gnd.t363 gnd.t362 sky130_fd_pr__nfet_01v8 ad=2.73 pd=14.78 as=2.73 ps=14.78 w=7 l=1
X181 vdd.t80 vdd.t78 vdd.t79 vdd.t60 sky130_fd_pr__pfet_01v8 ad=3.12 pd=16.78 as=0 ps=0 w=8 l=0.5
X182 vdd.t172 a_n1986_13878.t60 a_n1808_13878.t1 vdd.t171 sky130_fd_pr__pfet_01v8 ad=1.485 pd=9.33 as=1.485 ps=9.33 w=9 l=0.5
X183 a_n3827_n3924.t32 plus.t14 a_n5644_8799.t15 gnd.t10 sky130_fd_pr__nfet_01v8 ad=1.155 pd=7.33 as=1.155 ps=7.33 w=7 l=0.5
X184 CSoutput.t2 commonsourceibias.t99 gnd.t305 gnd.t216 sky130_fd_pr__nfet_01v8 ad=1.155 pd=7.33 as=2.73 ps=14.78 w=7 l=1
X185 gnd.t304 commonsourceibias.t100 CSoutput.t25 gnd.t271 sky130_fd_pr__nfet_01v8 ad=1.155 pd=7.33 as=1.155 ps=7.33 w=7 l=1
X186 vdd.t77 vdd.t74 vdd.t76 vdd.t75 sky130_fd_pr__pfet_01v8 ad=3.12 pd=16.78 as=0 ps=0 w=8 l=0.5
X187 output.t8 CSoutput.t153 vdd.t19 gnd.t175 sky130_fd_pr__nfet_01v8 ad=0.825 pd=5.33 as=0.825 ps=5.33 w=5 l=1
X188 gnd.t303 commonsourceibias.t101 CSoutput.t1 gnd.t238 sky130_fd_pr__nfet_01v8 ad=1.155 pd=7.33 as=1.155 ps=7.33 w=7 l=1
X189 a_n3827_n3924.t55 minus.t20 a_n1986_13878.t45 gnd.t154 sky130_fd_pr__nfet_01v8 ad=1.155 pd=7.33 as=1.155 ps=7.33 w=7 l=0.5
X190 a_n3827_n3924.t36 plus.t15 a_n5644_8799.t18 gnd.t158 sky130_fd_pr__nfet_01v8 ad=1.155 pd=7.33 as=1.155 ps=7.33 w=7 l=0.5
X191 diffpairibias.t9 diffpairibias.t8 gnd.t359 gnd.t358 sky130_fd_pr__nfet_01v8 ad=2.73 pd=14.78 as=2.73 ps=14.78 w=7 l=1
X192 CSoutput.t107 a_n5644_8799.t62 vdd.t11 vdd.t10 sky130_fd_pr__pfet_01v8 ad=1.32 pd=8.33 as=1.32 ps=8.33 w=8 l=0.5
X193 vdd.t30 a_n5644_8799.t63 CSoutput.t106 vdd.t29 sky130_fd_pr__pfet_01v8 ad=3.12 pd=16.78 as=1.32 ps=8.33 w=8 l=0.5
X194 a_n5644_8799.t12 plus.t16 a_n3827_n3924.t27 gnd.t183 sky130_fd_pr__nfet_01v8 ad=1.155 pd=7.33 as=1.155 ps=7.33 w=7 l=0.5
X195 a_n3827_n3924.t23 minus.t21 a_n1986_13878.t13 gnd.t163 sky130_fd_pr__nfet_01v8 ad=1.155 pd=7.33 as=1.155 ps=7.33 w=7 l=0.5
X196 a_n1986_8322.t16 a_n1986_13878.t61 a_n5644_8799.t22 vdd.t146 sky130_fd_pr__pfet_01v8 ad=1.485 pd=9.33 as=1.485 ps=9.33 w=9 l=0.5
X197 commonsourceibias.t35 commonsourceibias.t34 gnd.t302 gnd.t293 sky130_fd_pr__nfet_01v8 ad=1.155 pd=7.33 as=1.155 ps=7.33 w=7 l=1
X198 CSoutput.t105 a_n5644_8799.t64 vdd.t12 vdd.t6 sky130_fd_pr__pfet_01v8 ad=1.32 pd=8.33 as=1.32 ps=8.33 w=8 l=0.5
X199 diffpairibias.t7 diffpairibias.t6 gnd.t136 gnd.t135 sky130_fd_pr__nfet_01v8 ad=2.73 pd=14.78 as=2.73 ps=14.78 w=7 l=1
X200 outputibias.t1 outputibias.t0 gnd.t369 gnd.t368 sky130_fd_pr__nfet_01v8 ad=2.34 pd=12.78 as=2.34 ps=12.78 w=6 l=2
X201 vdd.t139 a_n5644_8799.t65 CSoutput.t104 vdd.t132 sky130_fd_pr__pfet_01v8 ad=1.32 pd=8.33 as=1.32 ps=8.33 w=8 l=0.5
X202 vdd.t170 a_n1986_13878.t62 a_n1986_8322.t5 vdd.t169 sky130_fd_pr__pfet_01v8 ad=1.485 pd=9.33 as=3.51 ps=18.78 w=9 l=0.5
X203 vdd.t5 a_n5644_8799.t66 CSoutput.t103 vdd.t4 sky130_fd_pr__pfet_01v8 ad=1.32 pd=8.33 as=1.32 ps=8.33 w=8 l=0.5
X204 CSoutput.t154 a_n1986_8322.t0 sky130_fd_pr__cap_mim_m3_1 l=12 w=12
X205 output.t17 outputibias.t10 gnd.t367 gnd.t366 sky130_fd_pr__nfet_01v8 ad=2.34 pd=12.78 as=2.34 ps=12.78 w=6 l=2
X206 CSoutput.t136 commonsourceibias.t102 gnd.t301 gnd.t208 sky130_fd_pr__nfet_01v8 ad=1.155 pd=7.33 as=1.155 ps=7.33 w=7 l=1
X207 commonsourceibias.t33 commonsourceibias.t32 gnd.t300 gnd.t263 sky130_fd_pr__nfet_01v8 ad=1.155 pd=7.33 as=1.155 ps=7.33 w=7 l=1
X208 a_n1808_13878.t4 a_n1986_13878.t63 vdd.t168 vdd.t167 sky130_fd_pr__pfet_01v8 ad=3.51 pd=18.78 as=1.485 ps=9.33 w=9 l=0.5
X209 gnd.t63 gnd.t60 gnd.t62 gnd.t61 sky130_fd_pr__nfet_01v8 ad=2.73 pd=14.78 as=0 ps=0 w=7 l=1
X210 plus.t1 gnd.t57 gnd.t59 gnd.t58 sky130_fd_pr__nfet_01v8 ad=0.165 pd=1.33 as=0.165 ps=1.33 w=1 l=0.5
X211 CSoutput.t141 commonsourceibias.t103 gnd.t299 gnd.t208 sky130_fd_pr__nfet_01v8 ad=1.155 pd=7.33 as=1.155 ps=7.33 w=7 l=1
X212 vdd.t15 CSoutput.t155 output.t7 gnd.t174 sky130_fd_pr__nfet_01v8 ad=0.825 pd=5.33 as=0.825 ps=5.33 w=5 l=1
X213 gnd.t298 commonsourceibias.t104 CSoutput.t75 gnd.t279 sky130_fd_pr__nfet_01v8 ad=1.155 pd=7.33 as=1.155 ps=7.33 w=7 l=1
X214 CSoutput.t102 a_n5644_8799.t67 vdd.t1 vdd.t0 sky130_fd_pr__pfet_01v8 ad=1.32 pd=8.33 as=3.12 ps=16.78 w=8 l=0.5
X215 CSoutput.t101 a_n5644_8799.t68 vdd.t28 vdd.t27 sky130_fd_pr__pfet_01v8 ad=1.32 pd=8.33 as=1.32 ps=8.33 w=8 l=0.5
X216 gnd.t56 gnd.t54 minus.t1 gnd.t55 sky130_fd_pr__nfet_01v8 ad=0.39 pd=2.78 as=0.165 ps=1.33 w=1 l=0.5
X217 CSoutput.t53 commonsourceibias.t105 gnd.t297 gnd.t221 sky130_fd_pr__nfet_01v8 ad=1.155 pd=7.33 as=1.155 ps=7.33 w=7 l=1
X218 gnd.t53 gnd.t50 gnd.t52 gnd.t51 sky130_fd_pr__nfet_01v8 ad=2.73 pd=14.78 as=0 ps=0 w=7 l=0.5
X219 gnd.t296 commonsourceibias.t106 CSoutput.t52 gnd.t244 sky130_fd_pr__nfet_01v8 ad=1.155 pd=7.33 as=1.155 ps=7.33 w=7 l=1
X220 CSoutput.t156 a_n1986_8322.t1 sky130_fd_pr__cap_mim_m3_1 l=12 w=12
X221 gnd.t295 commonsourceibias.t0 commonsourceibias.t1 gnd.t223 sky130_fd_pr__nfet_01v8 ad=2.73 pd=14.78 as=1.155 ps=7.33 w=7 l=1
X222 vdd.t73 vdd.t71 vdd.t72 vdd.t60 sky130_fd_pr__pfet_01v8 ad=3.12 pd=16.78 as=0 ps=0 w=8 l=0.5
X223 gnd.t49 gnd.t46 gnd.t48 gnd.t47 sky130_fd_pr__nfet_01v8 ad=2.73 pd=14.78 as=0 ps=0 w=7 l=0.5
X224 CSoutput.t32 commonsourceibias.t107 gnd.t294 gnd.t293 sky130_fd_pr__nfet_01v8 ad=1.155 pd=7.33 as=1.155 ps=7.33 w=7 l=1
X225 gnd.t292 commonsourceibias.t108 CSoutput.t44 gnd.t219 sky130_fd_pr__nfet_01v8 ad=1.155 pd=7.33 as=1.155 ps=7.33 w=7 l=1
X226 CSoutput.t31 commonsourceibias.t109 gnd.t291 gnd.t275 sky130_fd_pr__nfet_01v8 ad=1.155 pd=7.33 as=1.155 ps=7.33 w=7 l=1
X227 gnd.t45 gnd.t42 gnd.t44 gnd.t43 sky130_fd_pr__nfet_01v8 ad=2.73 pd=14.78 as=0 ps=0 w=7 l=1
X228 a_n1986_8322.t15 a_n1986_13878.t64 a_n5644_8799.t27 vdd.t166 sky130_fd_pr__pfet_01v8 ad=1.485 pd=9.33 as=1.485 ps=9.33 w=9 l=0.5
X229 vdd.t165 a_n1986_13878.t65 a_n1986_8322.t4 vdd.t164 sky130_fd_pr__pfet_01v8 ad=1.485 pd=9.33 as=1.485 ps=9.33 w=9 l=0.5
X230 CSoutput.t100 a_n5644_8799.t69 vdd.t134 vdd.t27 sky130_fd_pr__pfet_01v8 ad=1.32 pd=8.33 as=1.32 ps=8.33 w=8 l=0.5
X231 gnd.t290 commonsourceibias.t110 CSoutput.t51 gnd.t210 sky130_fd_pr__nfet_01v8 ad=1.155 pd=7.33 as=1.155 ps=7.33 w=7 l=1
X232 commonsourceibias.t9 commonsourceibias.t8 gnd.t289 gnd.t206 sky130_fd_pr__nfet_01v8 ad=1.155 pd=7.33 as=1.155 ps=7.33 w=7 l=1
X233 a_n3827_n3924.t47 diffpairibias.t26 gnd.t12 gnd.t11 sky130_fd_pr__nfet_01v8 ad=2.73 pd=14.78 as=2.73 ps=14.78 w=7 l=1
X234 vdd.t191 a_n5644_8799.t70 CSoutput.t99 vdd.t22 sky130_fd_pr__pfet_01v8 ad=1.32 pd=8.33 as=1.32 ps=8.33 w=8 l=0.5
X235 CSoutput.t30 commonsourceibias.t111 gnd.t288 gnd.t236 sky130_fd_pr__nfet_01v8 ad=1.155 pd=7.33 as=1.155 ps=7.33 w=7 l=1
X236 gnd.t287 commonsourceibias.t112 CSoutput.t50 gnd.t200 sky130_fd_pr__nfet_01v8 ad=1.155 pd=7.33 as=1.155 ps=7.33 w=7 l=1
X237 gnd.t286 commonsourceibias.t113 CSoutput.t29 gnd.t212 sky130_fd_pr__nfet_01v8 ad=1.155 pd=7.33 as=1.155 ps=7.33 w=7 l=1
X238 CSoutput.t19 commonsourceibias.t114 gnd.t284 gnd.t236 sky130_fd_pr__nfet_01v8 ad=1.155 pd=7.33 as=1.155 ps=7.33 w=7 l=1
X239 CSoutput.t12 commonsourceibias.t115 gnd.t285 gnd.t198 sky130_fd_pr__nfet_01v8 ad=1.155 pd=7.33 as=1.155 ps=7.33 w=7 l=1
X240 gnd.t283 commonsourceibias.t116 CSoutput.t28 gnd.t223 sky130_fd_pr__nfet_01v8 ad=2.73 pd=14.78 as=1.155 ps=7.33 w=7 l=1
X241 commonsourceibias.t29 commonsourceibias.t28 gnd.t282 gnd.t281 sky130_fd_pr__nfet_01v8 ad=1.155 pd=7.33 as=1.155 ps=7.33 w=7 l=1
X242 vdd.t70 vdd.t67 vdd.t69 vdd.t68 sky130_fd_pr__pfet_01v8 ad=3.51 pd=18.78 as=0 ps=0 w=9 l=0.5
X243 vdd.t66 vdd.t63 vdd.t65 vdd.t64 sky130_fd_pr__pfet_01v8 ad=3.12 pd=16.78 as=0 ps=0 w=8 l=0.5
X244 a_n3827_n3924.t31 plus.t17 a_n5644_8799.t14 gnd.t162 sky130_fd_pr__nfet_01v8 ad=1.155 pd=7.33 as=1.155 ps=7.33 w=7 l=0.5
X245 a_n1808_13878.t10 a_n1986_13878.t39 a_n1986_13878.t40 vdd.t158 sky130_fd_pr__pfet_01v8 ad=1.485 pd=9.33 as=1.485 ps=9.33 w=9 l=0.5
X246 a_n3827_n3924.t7 minus.t22 a_n1986_13878.t3 gnd.t9 sky130_fd_pr__nfet_01v8 ad=1.155 pd=7.33 as=1.155 ps=7.33 w=7 l=0.5
X247 a_n5644_8799.t5 plus.t18 a_n3827_n3924.t12 gnd.t148 sky130_fd_pr__nfet_01v8 ad=1.155 pd=7.33 as=1.155 ps=7.33 w=7 l=0.5
X248 a_n1986_8322.t14 a_n1986_13878.t66 a_n5644_8799.t30 vdd.t163 sky130_fd_pr__pfet_01v8 ad=1.485 pd=9.33 as=1.485 ps=9.33 w=9 l=0.5
X249 gnd.t41 gnd.t38 gnd.t40 gnd.t39 sky130_fd_pr__nfet_01v8 ad=1.95 pd=10.78 as=0 ps=0 w=5 l=1
X250 gnd.t280 commonsourceibias.t117 CSoutput.t24 gnd.t279 sky130_fd_pr__nfet_01v8 ad=1.155 pd=7.33 as=1.155 ps=7.33 w=7 l=1