* NGSPICE file created from opamp.ext - technology: sky130A

.subckt opamp CSoutput output vdd plus minus commonsourceibias outputibias diffpairibias
+ gnd
X0 commonsourceibias.t69 commonsourceibias.t68 gnd.t345 gnd.t308 sky130_fd_pr__nfet_01v8 ad=1.155 pd=7.33 as=1.155 ps=7.33 w=7 l=1
X1 gnd.t344 commonsourceibias.t80 CSoutput.t139 gnd.t200 sky130_fd_pr__nfet_01v8 ad=1.155 pd=7.33 as=1.155 ps=7.33 w=7 l=1
X2 vdd.t171 vdd.t169 vdd.t170 vdd.t157 sky130_fd_pr__pfet_01v8_lvt ad=3.12 pd=16.78 as=0 ps=0 w=8 l=0.5
X3 vdd.t1 a_n6308_8799.t32 CSoutput.t0 vdd.t0 sky130_fd_pr__pfet_01v8_lvt ad=1.32 pd=8.33 as=1.32 ps=8.33 w=8 l=0.5
X4 a_n1986_8322.t23 a_n2356_n452.t44 vdd.t186 vdd.t185 sky130_fd_pr__pfet_01v8_lvt ad=1.485 pd=9.33 as=1.485 ps=9.33 w=9 l=0.5
X5 a_n1808_13878.t19 a_n2356_n452.t26 a_n2356_n452.t27 vdd.t7 sky130_fd_pr__pfet_01v8_lvt ad=1.485 pd=9.33 as=3.51 ps=18.78 w=9 l=0.5
X6 gnd.t178 gnd.t176 gnd.t177 gnd.t76 sky130_fd_pr__nfet_01v8 ad=2.73 pd=14.78 as=0 ps=0 w=7 l=1
X7 a_n6308_8799.t10 plus.t5 a_n2903_n3924.t21 gnd.t30 sky130_fd_pr__nfet_01v8 ad=1.155 pd=7.33 as=1.155 ps=7.33 w=7 l=0.9
X8 outputibias.t7 outputibias.t6 gnd.t32 gnd.t31 sky130_fd_pr__nfet_01v8 ad=2.34 pd=12.78 as=2.34 ps=12.78 w=6 l=2
X9 gnd.t343 commonsourceibias.t81 CSoutput.t138 gnd.t302 sky130_fd_pr__nfet_01v8 ad=1.155 pd=7.33 as=1.155 ps=7.33 w=7 l=1
X10 a_n2903_n3924.t20 plus.t6 a_n6308_8799.t22 gnd.t63 sky130_fd_pr__nfet_01v8 ad=2.73 pd=14.78 as=1.155 ps=7.33 w=7 l=0.9
X11 a_n2356_n452.t21 a_n2356_n452.t20 a_n1808_13878.t18 vdd.t172 sky130_fd_pr__pfet_01v8_lvt ad=1.485 pd=9.33 as=1.485 ps=9.33 w=9 l=0.5
X12 a_n1808_13878.t17 a_n2356_n452.t24 a_n2356_n452.t25 vdd.t19 sky130_fd_pr__pfet_01v8_lvt ad=1.485 pd=9.33 as=1.485 ps=9.33 w=9 l=0.5
X13 vdd.t168 vdd.t166 vdd.t167 vdd.t140 sky130_fd_pr__pfet_01v8_lvt ad=3.51 pd=18.78 as=0 ps=0 w=9 l=0.5
X14 CSoutput.t1 a_n6308_8799.t33 vdd.t3 vdd.t2 sky130_fd_pr__pfet_01v8_lvt ad=1.32 pd=8.33 as=1.32 ps=8.33 w=8 l=0.5
X15 a_n1808_13878.t7 a_n2356_n452.t45 vdd.t188 vdd.t187 sky130_fd_pr__pfet_01v8_lvt ad=1.485 pd=9.33 as=1.485 ps=9.33 w=9 l=0.5
X16 vdd.t165 vdd.t163 vdd.t164 vdd.t157 sky130_fd_pr__pfet_01v8_lvt ad=3.12 pd=16.78 as=0 ps=0 w=8 l=0.5
X17 vdd.t162 vdd.t160 vdd.t161 vdd.t108 sky130_fd_pr__pfet_01v8_lvt ad=3.12 pd=16.78 as=0 ps=0 w=8 l=0.5
X18 vdd.t36 CSoutput.t152 output.t15 gnd.t48 sky130_fd_pr__nfet_01v8_lvt ad=0.825 pd=5.33 as=0.825 ps=5.33 w=5 l=1
X19 CSoutput.t153 a_n1986_8322.t3 sky130_fd_pr__cap_mim_m3_1 l=12 w=12
X20 gnd.t342 commonsourceibias.t66 commonsourceibias.t67 gnd.t222 sky130_fd_pr__nfet_01v8 ad=1.155 pd=7.33 as=1.155 ps=7.33 w=7 l=1
X21 gnd.t341 commonsourceibias.t82 CSoutput.t137 gnd.t224 sky130_fd_pr__nfet_01v8 ad=1.155 pd=7.33 as=1.155 ps=7.33 w=7 l=1
X22 CSoutput.t58 a_n6308_8799.t34 vdd.t212 vdd.t191 sky130_fd_pr__pfet_01v8_lvt ad=1.32 pd=8.33 as=1.32 ps=8.33 w=8 l=0.5
X23 gnd.t340 commonsourceibias.t83 CSoutput.t136 gnd.t219 sky130_fd_pr__nfet_01v8 ad=1.155 pd=7.33 as=1.155 ps=7.33 w=7 l=1
X24 gnd.t339 commonsourceibias.t84 CSoutput.t135 gnd.t222 sky130_fd_pr__nfet_01v8 ad=1.155 pd=7.33 as=1.155 ps=7.33 w=7 l=1
X25 CSoutput.t59 a_n6308_8799.t35 vdd.t213 vdd.t53 sky130_fd_pr__pfet_01v8_lvt ad=1.32 pd=8.33 as=1.32 ps=8.33 w=8 l=0.5
X26 gnd.t338 commonsourceibias.t85 CSoutput.t134 gnd.t236 sky130_fd_pr__nfet_01v8 ad=1.155 pd=7.33 as=1.155 ps=7.33 w=7 l=1
X27 outputibias.t5 outputibias.t4 gnd.t183 gnd.t182 sky130_fd_pr__nfet_01v8 ad=2.34 pd=12.78 as=2.34 ps=12.78 w=6 l=2
X28 output.t14 CSoutput.t154 vdd.t34 gnd.t33 sky130_fd_pr__nfet_01v8_lvt ad=0.825 pd=5.33 as=0.825 ps=5.33 w=5 l=1
X29 a_n1986_8322.t15 a_n2356_n452.t46 a_n6308_8799.t4 vdd.t18 sky130_fd_pr__pfet_01v8_lvt ad=1.485 pd=9.33 as=1.485 ps=9.33 w=9 l=0.5
X30 a_n2356_n452.t0 minus.t5 a_n2903_n3924.t26 gnd.t9 sky130_fd_pr__nfet_01v8 ad=1.155 pd=7.33 as=1.155 ps=7.33 w=7 l=0.9
X31 a_n6308_8799.t8 plus.t7 a_n2903_n3924.t19 gnd.t22 sky130_fd_pr__nfet_01v8 ad=1.155 pd=7.33 as=1.155 ps=7.33 w=7 l=0.9
X32 gnd.t337 commonsourceibias.t78 commonsourceibias.t79 gnd.t245 sky130_fd_pr__nfet_01v8 ad=1.155 pd=7.33 as=1.155 ps=7.33 w=7 l=1
X33 a_n2356_n452.t1 minus.t6 a_n2903_n3924.t27 gnd.t65 sky130_fd_pr__nfet_01v8 ad=1.155 pd=7.33 as=1.155 ps=7.33 w=7 l=0.9
X34 CSoutput.t133 commonsourceibias.t86 gnd.t336 gnd.t213 sky130_fd_pr__nfet_01v8 ad=1.155 pd=7.33 as=1.155 ps=7.33 w=7 l=1
X35 gnd.t335 commonsourceibias.t76 commonsourceibias.t77 gnd.t299 sky130_fd_pr__nfet_01v8 ad=1.155 pd=7.33 as=1.155 ps=7.33 w=7 l=1
X36 CSoutput.t32 a_n6308_8799.t36 vdd.t84 vdd.t44 sky130_fd_pr__pfet_01v8_lvt ad=1.32 pd=8.33 as=1.32 ps=8.33 w=8 l=0.5
X37 vdd.t85 a_n6308_8799.t37 CSoutput.t33 vdd.t11 sky130_fd_pr__pfet_01v8_lvt ad=1.32 pd=8.33 as=1.32 ps=8.33 w=8 l=0.5
X38 CSoutput.t132 commonsourceibias.t87 gnd.t334 gnd.t210 sky130_fd_pr__nfet_01v8 ad=1.155 pd=7.33 as=1.155 ps=7.33 w=7 l=1
X39 a_n2903_n3924.t18 plus.t8 a_n6308_8799.t9 gnd.t25 sky130_fd_pr__nfet_01v8 ad=1.155 pd=7.33 as=1.155 ps=7.33 w=7 l=0.9
X40 a_n6308_8799.t5 a_n2356_n452.t47 a_n1986_8322.t14 vdd.t7 sky130_fd_pr__pfet_01v8_lvt ad=1.485 pd=9.33 as=3.51 ps=18.78 w=9 l=0.5
X41 CSoutput.t50 a_n6308_8799.t38 vdd.t202 vdd.t26 sky130_fd_pr__pfet_01v8_lvt ad=1.32 pd=8.33 as=3.12 ps=16.78 w=8 l=0.5
X42 vdd.t204 a_n6308_8799.t39 CSoutput.t51 vdd.t203 sky130_fd_pr__pfet_01v8_lvt ad=1.32 pd=8.33 as=1.32 ps=8.33 w=8 l=0.5
X43 a_n2903_n3924.t34 minus.t7 a_n2356_n452.t8 gnd.t68 sky130_fd_pr__nfet_01v8 ad=1.155 pd=7.33 as=1.155 ps=7.33 w=7 l=0.9
X44 CSoutput.t131 commonsourceibias.t88 gnd.t333 gnd.t205 sky130_fd_pr__nfet_01v8 ad=1.155 pd=7.33 as=1.155 ps=7.33 w=7 l=1
X45 a_n2903_n3924.t23 diffpairibias.t16 gnd.t45 gnd.t44 sky130_fd_pr__nfet_01v8 ad=2.73 pd=14.78 as=2.73 ps=14.78 w=7 l=1
X46 CSoutput.t130 commonsourceibias.t89 gnd.t332 gnd.t207 sky130_fd_pr__nfet_01v8 ad=1.155 pd=7.33 as=1.155 ps=7.33 w=7 l=1
X47 vdd.t159 vdd.t156 vdd.t158 vdd.t157 sky130_fd_pr__pfet_01v8_lvt ad=3.12 pd=16.78 as=0 ps=0 w=8 l=0.5
X48 output.t13 CSoutput.t155 vdd.t42 gnd.t34 sky130_fd_pr__nfet_01v8_lvt ad=0.825 pd=5.33 as=0.825 ps=5.33 w=5 l=1
X49 CSoutput.t129 commonsourceibias.t90 gnd.t331 gnd.t202 sky130_fd_pr__nfet_01v8 ad=1.155 pd=7.33 as=1.155 ps=7.33 w=7 l=1
X50 CSoutput.t30 a_n6308_8799.t40 vdd.t82 vdd.t68 sky130_fd_pr__pfet_01v8_lvt ad=1.32 pd=8.33 as=1.32 ps=8.33 w=8 l=0.5
X51 CSoutput.t31 a_n6308_8799.t41 vdd.t83 vdd.t2 sky130_fd_pr__pfet_01v8_lvt ad=1.32 pd=8.33 as=1.32 ps=8.33 w=8 l=0.5
X52 vdd.t155 vdd.t153 vdd.t154 vdd.t97 sky130_fd_pr__pfet_01v8_lvt ad=3.12 pd=16.78 as=0 ps=0 w=8 l=0.5
X53 outputibias.t3 outputibias.t2 gnd.t185 gnd.t184 sky130_fd_pr__nfet_01v8 ad=2.34 pd=12.78 as=2.34 ps=12.78 w=6 l=2
X54 gnd.t330 commonsourceibias.t74 commonsourceibias.t75 gnd.t192 sky130_fd_pr__nfet_01v8 ad=1.155 pd=7.33 as=1.155 ps=7.33 w=7 l=1
X55 CSoutput.t128 commonsourceibias.t91 gnd.t318 gnd.t308 sky130_fd_pr__nfet_01v8 ad=1.155 pd=7.33 as=1.155 ps=7.33 w=7 l=1
X56 output.t12 CSoutput.t156 vdd.t40 gnd.t350 sky130_fd_pr__nfet_01v8_lvt ad=1.95 pd=10.78 as=0.825 ps=5.33 w=5 l=1
X57 commonsourceibias.t73 commonsourceibias.t72 gnd.t329 gnd.t282 sky130_fd_pr__nfet_01v8 ad=1.155 pd=7.33 as=2.73 ps=14.78 w=7 l=1
X58 CSoutput.t157 a_n1986_8322.t2 sky130_fd_pr__cap_mim_m3_1 l=12 w=12
X59 CSoutput.t144 a_n6308_8799.t42 vdd.t222 vdd.t53 sky130_fd_pr__pfet_01v8_lvt ad=1.32 pd=8.33 as=1.32 ps=8.33 w=8 l=0.5
X60 plus.t4 gnd.t173 gnd.t175 gnd.t174 sky130_fd_pr__nfet_01v8 ad=0.165 pd=1.33 as=0.165 ps=1.33 w=1 l=0.5
X61 a_n2903_n3924.t17 plus.t9 a_n6308_8799.t27 gnd.t70 sky130_fd_pr__nfet_01v8 ad=1.155 pd=7.33 as=1.155 ps=7.33 w=7 l=0.9
X62 a_n1808_13878.t16 a_n2356_n452.t32 a_n2356_n452.t33 vdd.t17 sky130_fd_pr__pfet_01v8_lvt ad=1.485 pd=9.33 as=3.51 ps=18.78 w=9 l=0.5
X63 vdd.t223 a_n6308_8799.t43 CSoutput.t145 vdd.t203 sky130_fd_pr__pfet_01v8_lvt ad=1.32 pd=8.33 as=1.32 ps=8.33 w=8 l=0.5
X64 gnd.t172 gnd.t170 gnd.t171 gnd.t135 sky130_fd_pr__nfet_01v8 ad=2.73 pd=14.78 as=0 ps=0 w=7 l=0.9
X65 a_n2903_n3924.t16 plus.t10 a_n6308_8799.t29 gnd.t66 sky130_fd_pr__nfet_01v8 ad=1.155 pd=7.33 as=1.155 ps=7.33 w=7 l=0.9
X66 diffpairibias.t15 diffpairibias.t14 gnd.t37 gnd.t36 sky130_fd_pr__nfet_01v8 ad=2.73 pd=14.78 as=2.73 ps=14.78 w=7 l=1
X67 a_n2356_n452.t31 a_n2356_n452.t30 a_n1808_13878.t15 vdd.t92 sky130_fd_pr__pfet_01v8_lvt ad=1.485 pd=9.33 as=1.485 ps=9.33 w=9 l=0.5
X68 CSoutput.t150 a_n6308_8799.t44 vdd.t228 vdd.t210 sky130_fd_pr__pfet_01v8_lvt ad=1.32 pd=8.33 as=1.32 ps=8.33 w=8 l=0.5
X69 vdd.t152 vdd.t150 vdd.t151 vdd.t125 sky130_fd_pr__pfet_01v8_lvt ad=3.51 pd=18.78 as=0 ps=0 w=9 l=0.5
X70 gnd.t169 gnd.t167 gnd.t168 gnd.t76 sky130_fd_pr__nfet_01v8 ad=2.73 pd=14.78 as=0 ps=0 w=7 l=1
X71 gnd.t328 commonsourceibias.t92 CSoutput.t127 gnd.t302 sky130_fd_pr__nfet_01v8 ad=1.155 pd=7.33 as=1.155 ps=7.33 w=7 l=1
X72 gnd.t327 commonsourceibias.t93 CSoutput.t126 gnd.t186 sky130_fd_pr__nfet_01v8 ad=1.155 pd=7.33 as=1.155 ps=7.33 w=7 l=1
X73 diffpairibias.t13 diffpairibias.t12 gnd.t349 gnd.t348 sky130_fd_pr__nfet_01v8 ad=2.73 pd=14.78 as=2.73 ps=14.78 w=7 l=1
X74 gnd.t326 commonsourceibias.t94 CSoutput.t125 gnd.t299 sky130_fd_pr__nfet_01v8 ad=1.155 pd=7.33 as=1.155 ps=7.33 w=7 l=1
X75 commonsourceibias.t71 commonsourceibias.t70 gnd.t325 gnd.t213 sky130_fd_pr__nfet_01v8 ad=1.155 pd=7.33 as=1.155 ps=7.33 w=7 l=1
X76 vdd.t229 a_n6308_8799.t45 CSoutput.t151 vdd.t203 sky130_fd_pr__pfet_01v8_lvt ad=1.32 pd=8.33 as=1.32 ps=8.33 w=8 l=0.5
X77 vdd.t31 CSoutput.t158 output.t11 gnd.t351 sky130_fd_pr__nfet_01v8_lvt ad=0.825 pd=5.33 as=1.95 ps=10.78 w=5 l=1
X78 vdd.t25 a_n6308_8799.t46 CSoutput.t6 vdd.t24 sky130_fd_pr__pfet_01v8_lvt ad=1.32 pd=8.33 as=1.32 ps=8.33 w=8 l=0.5
X79 CSoutput.t7 a_n6308_8799.t47 vdd.t27 vdd.t26 sky130_fd_pr__pfet_01v8_lvt ad=1.32 pd=8.33 as=3.12 ps=16.78 w=8 l=0.5
X80 gnd.t324 commonsourceibias.t95 CSoutput.t124 gnd.t236 sky130_fd_pr__nfet_01v8 ad=1.155 pd=7.33 as=1.155 ps=7.33 w=7 l=1
X81 a_n2903_n3924.t33 minus.t8 a_n2356_n452.t7 gnd.t6 sky130_fd_pr__nfet_01v8 ad=1.155 pd=7.33 as=1.155 ps=7.33 w=7 l=0.9
X82 commonsourceibias.t65 commonsourceibias.t64 gnd.t323 gnd.t250 sky130_fd_pr__nfet_01v8 ad=1.155 pd=7.33 as=1.155 ps=7.33 w=7 l=1
X83 a_n2903_n3924.t15 plus.t11 a_n6308_8799.t16 gnd.t54 sky130_fd_pr__nfet_01v8 ad=2.73 pd=14.78 as=1.155 ps=7.33 w=7 l=0.9
X84 vdd.t67 a_n6308_8799.t48 CSoutput.t22 vdd.t66 sky130_fd_pr__pfet_01v8_lvt ad=1.32 pd=8.33 as=1.32 ps=8.33 w=8 l=0.5
X85 gnd.t166 gnd.t164 minus.t4 gnd.t165 sky130_fd_pr__nfet_01v8 ad=0.165 pd=1.33 as=0.39 ps=2.78 w=1 l=0.5
X86 gnd.t317 commonsourceibias.t96 CSoutput.t123 gnd.t292 sky130_fd_pr__nfet_01v8 ad=1.155 pd=7.33 as=1.155 ps=7.33 w=7 l=1
X87 a_n6308_8799.t31 plus.t12 a_n2903_n3924.t14 gnd.t69 sky130_fd_pr__nfet_01v8 ad=1.155 pd=7.33 as=1.155 ps=7.33 w=7 l=0.9
X88 gnd.t163 gnd.t161 gnd.t162 gnd.t88 sky130_fd_pr__nfet_01v8 ad=2.73 pd=14.78 as=0 ps=0 w=7 l=0.9
X89 commonsourceibias.t63 commonsourceibias.t62 gnd.t322 gnd.t239 sky130_fd_pr__nfet_01v8 ad=1.155 pd=7.33 as=1.155 ps=7.33 w=7 l=1
X90 CSoutput.t23 a_n6308_8799.t49 vdd.t69 vdd.t68 sky130_fd_pr__pfet_01v8_lvt ad=1.32 pd=8.33 as=1.32 ps=8.33 w=8 l=0.5
X91 CSoutput.t48 a_n6308_8799.t50 vdd.t200 vdd.t60 sky130_fd_pr__pfet_01v8_lvt ad=1.32 pd=8.33 as=1.32 ps=8.33 w=8 l=0.5
X92 CSoutput.t122 commonsourceibias.t97 gnd.t321 gnd.t290 sky130_fd_pr__nfet_01v8 ad=1.155 pd=7.33 as=1.155 ps=7.33 w=7 l=1
X93 CSoutput.t159 a_n1986_8322.t0 sky130_fd_pr__cap_mim_m3_1 l=12 w=12
X94 a_n2903_n3924.t47 diffpairibias.t17 gnd.t347 gnd.t346 sky130_fd_pr__nfet_01v8 ad=2.73 pd=14.78 as=2.73 ps=14.78 w=7 l=1
X95 gnd.t320 commonsourceibias.t60 commonsourceibias.t61 gnd.t292 sky130_fd_pr__nfet_01v8 ad=1.155 pd=7.33 as=1.155 ps=7.33 w=7 l=1
X96 CSoutput.t49 a_n6308_8799.t51 vdd.t201 vdd.t60 sky130_fd_pr__pfet_01v8_lvt ad=1.32 pd=8.33 as=1.32 ps=8.33 w=8 l=0.5
X97 a_n2903_n3924.t13 plus.t13 a_n6308_8799.t0 gnd.t0 sky130_fd_pr__nfet_01v8 ad=1.155 pd=7.33 as=1.155 ps=7.33 w=7 l=0.9
X98 vdd.t198 a_n6308_8799.t52 CSoutput.t46 vdd.t9 sky130_fd_pr__pfet_01v8_lvt ad=1.32 pd=8.33 as=1.32 ps=8.33 w=8 l=0.5
X99 gnd.t319 commonsourceibias.t58 commonsourceibias.t59 gnd.t280 sky130_fd_pr__nfet_01v8 ad=2.73 pd=14.78 as=1.155 ps=7.33 w=7 l=1
X100 commonsourceibias.t57 commonsourceibias.t56 gnd.t316 gnd.t202 sky130_fd_pr__nfet_01v8 ad=1.155 pd=7.33 as=1.155 ps=7.33 w=7 l=1
X101 a_n2356_n452.t29 a_n2356_n452.t28 a_n1808_13878.t14 vdd.t18 sky130_fd_pr__pfet_01v8_lvt ad=1.485 pd=9.33 as=1.485 ps=9.33 w=9 l=0.5
X102 a_n2356_n452.t37 a_n2356_n452.t36 a_n1808_13878.t13 vdd.t73 sky130_fd_pr__pfet_01v8_lvt ad=3.51 pd=18.78 as=1.485 ps=9.33 w=9 l=0.5
X103 vdd.t199 a_n6308_8799.t53 CSoutput.t47 vdd.t11 sky130_fd_pr__pfet_01v8_lvt ad=1.32 pd=8.33 as=1.32 ps=8.33 w=8 l=0.5
X104 vdd.t80 a_n6308_8799.t54 CSoutput.t28 vdd.t79 sky130_fd_pr__pfet_01v8_lvt ad=1.32 pd=8.33 as=1.32 ps=8.33 w=8 l=0.5
X105 a_n6308_8799.t2 a_n2356_n452.t48 a_n1986_8322.t13 vdd.t4 sky130_fd_pr__pfet_01v8_lvt ad=1.485 pd=9.33 as=1.485 ps=9.33 w=9 l=0.5
X106 CSoutput.t121 commonsourceibias.t98 gnd.t315 gnd.t205 sky130_fd_pr__nfet_01v8 ad=1.155 pd=7.33 as=1.155 ps=7.33 w=7 l=1
X107 vdd.t81 a_n6308_8799.t55 CSoutput.t29 vdd.t9 sky130_fd_pr__pfet_01v8_lvt ad=1.32 pd=8.33 as=1.32 ps=8.33 w=8 l=0.5
X108 CSoutput.t120 commonsourceibias.t99 gnd.t314 gnd.t277 sky130_fd_pr__nfet_01v8 ad=1.155 pd=7.33 as=1.155 ps=7.33 w=7 l=1
X109 CSoutput.t119 commonsourceibias.t100 gnd.t313 gnd.t285 sky130_fd_pr__nfet_01v8 ad=1.155 pd=7.33 as=1.155 ps=7.33 w=7 l=1
X110 vdd.t63 a_n6308_8799.t56 CSoutput.t20 vdd.t62 sky130_fd_pr__pfet_01v8_lvt ad=3.12 pd=16.78 as=1.32 ps=8.33 w=8 l=0.5
X111 CSoutput.t118 commonsourceibias.t101 gnd.t312 gnd.t282 sky130_fd_pr__nfet_01v8 ad=1.155 pd=7.33 as=2.73 ps=14.78 w=7 l=1
X112 gnd.t311 commonsourceibias.t102 CSoutput.t117 gnd.t280 sky130_fd_pr__nfet_01v8 ad=2.73 pd=14.78 as=1.155 ps=7.33 w=7 l=1
X113 commonsourceibias.t9 commonsourceibias.t8 gnd.t310 gnd.t234 sky130_fd_pr__nfet_01v8 ad=1.155 pd=7.33 as=1.155 ps=7.33 w=7 l=1
X114 CSoutput.t21 a_n6308_8799.t57 vdd.t65 vdd.t64 sky130_fd_pr__pfet_01v8_lvt ad=1.32 pd=8.33 as=1.32 ps=8.33 w=8 l=0.5
X115 CSoutput.t116 commonsourceibias.t103 gnd.t309 gnd.t308 sky130_fd_pr__nfet_01v8 ad=1.155 pd=7.33 as=1.155 ps=7.33 w=7 l=1
X116 vdd.t59 a_n6308_8799.t58 CSoutput.t18 vdd.t24 sky130_fd_pr__pfet_01v8_lvt ad=1.32 pd=8.33 as=1.32 ps=8.33 w=8 l=0.5
X117 vdd.t149 vdd.t147 vdd.t148 vdd.t133 sky130_fd_pr__pfet_01v8_lvt ad=3.51 pd=18.78 as=0 ps=0 w=9 l=0.5
X118 vdd.t146 vdd.t143 vdd.t145 vdd.t144 sky130_fd_pr__pfet_01v8_lvt ad=3.51 pd=18.78 as=0 ps=0 w=9 l=0.5
X119 gnd.t307 commonsourceibias.t104 CSoutput.t115 gnd.t254 sky130_fd_pr__nfet_01v8 ad=1.155 pd=7.33 as=1.155 ps=7.33 w=7 l=1
X120 a_n2903_n3924.t0 diffpairibias.t18 gnd.t5 gnd.t4 sky130_fd_pr__nfet_01v8 ad=2.73 pd=14.78 as=2.73 ps=14.78 w=7 l=1
X121 vdd.t142 vdd.t139 vdd.t141 vdd.t140 sky130_fd_pr__pfet_01v8_lvt ad=3.51 pd=18.78 as=0 ps=0 w=9 l=0.5
X122 commonsourceibias.t7 commonsourceibias.t6 gnd.t306 gnd.t285 sky130_fd_pr__nfet_01v8 ad=1.155 pd=7.33 as=1.155 ps=7.33 w=7 l=1
X123 vdd.t6 a_n2356_n452.t49 a_n1986_8322.t22 vdd.t5 sky130_fd_pr__pfet_01v8_lvt ad=1.485 pd=9.33 as=1.485 ps=9.33 w=9 l=0.5
X124 vdd.t138 vdd.t136 vdd.t137 vdd.t129 sky130_fd_pr__pfet_01v8_lvt ad=3.51 pd=18.78 as=0 ps=0 w=9 l=0.5
X125 commonsourceibias.t5 commonsourceibias.t4 gnd.t305 gnd.t207 sky130_fd_pr__nfet_01v8 ad=1.155 pd=7.33 as=1.155 ps=7.33 w=7 l=1
X126 CSoutput.t19 a_n6308_8799.t59 vdd.t61 vdd.t60 sky130_fd_pr__pfet_01v8_lvt ad=1.32 pd=8.33 as=1.32 ps=8.33 w=8 l=0.5
X127 a_n1986_8322.t21 a_n2356_n452.t50 vdd.t215 vdd.t214 sky130_fd_pr__pfet_01v8_lvt ad=1.485 pd=9.33 as=1.485 ps=9.33 w=9 l=0.5
X128 gnd.t304 commonsourceibias.t2 commonsourceibias.t3 gnd.t224 sky130_fd_pr__nfet_01v8 ad=1.155 pd=7.33 as=1.155 ps=7.33 w=7 l=1
X129 vdd.t10 a_n6308_8799.t60 CSoutput.t2 vdd.t9 sky130_fd_pr__pfet_01v8_lvt ad=1.32 pd=8.33 as=1.32 ps=8.33 w=8 l=0.5
X130 plus.t3 gnd.t158 gnd.t160 gnd.t159 sky130_fd_pr__nfet_01v8 ad=0.165 pd=1.33 as=0.165 ps=1.33 w=1 l=0.5
X131 gnd.t303 commonsourceibias.t0 commonsourceibias.t1 gnd.t302 sky130_fd_pr__nfet_01v8 ad=1.155 pd=7.33 as=1.155 ps=7.33 w=7 l=1
X132 gnd.t301 commonsourceibias.t105 CSoutput.t114 gnd.t186 sky130_fd_pr__nfet_01v8 ad=1.155 pd=7.33 as=1.155 ps=7.33 w=7 l=1
X133 vdd.t217 a_n2356_n452.t51 a_n1808_13878.t6 vdd.t216 sky130_fd_pr__pfet_01v8_lvt ad=1.485 pd=9.33 as=1.485 ps=9.33 w=9 l=0.5
X134 gnd.t157 gnd.t155 minus.t3 gnd.t156 sky130_fd_pr__nfet_01v8 ad=0.165 pd=1.33 as=0.165 ps=1.33 w=1 l=0.5
X135 outputibias.t1 outputibias.t0 gnd.t43 gnd.t42 sky130_fd_pr__nfet_01v8 ad=2.34 pd=12.78 as=2.34 ps=12.78 w=6 l=2
X136 gnd.t300 commonsourceibias.t106 CSoutput.t113 gnd.t299 sky130_fd_pr__nfet_01v8 ad=1.155 pd=7.33 as=1.155 ps=7.33 w=7 l=1
X137 a_n2356_n452.t6 minus.t9 a_n2903_n3924.t32 gnd.t67 sky130_fd_pr__nfet_01v8 ad=1.155 pd=7.33 as=2.73 ps=14.78 w=7 l=0.9
X138 a_n6308_8799.t23 plus.t14 a_n2903_n3924.t12 gnd.t64 sky130_fd_pr__nfet_01v8 ad=1.155 pd=7.33 as=2.73 ps=14.78 w=7 l=0.9
X139 gnd.t298 commonsourceibias.t107 CSoutput.t112 gnd.t243 sky130_fd_pr__nfet_01v8 ad=1.155 pd=7.33 as=1.155 ps=7.33 w=7 l=1
X140 commonsourceibias.t55 commonsourceibias.t54 gnd.t297 gnd.t241 sky130_fd_pr__nfet_01v8 ad=1.155 pd=7.33 as=1.155 ps=7.33 w=7 l=1
X141 vdd.t135 vdd.t132 vdd.t134 vdd.t133 sky130_fd_pr__pfet_01v8_lvt ad=3.51 pd=18.78 as=0 ps=0 w=9 l=0.5
X142 a_n6308_8799.t17 plus.t15 a_n2903_n3924.t11 gnd.t55 sky130_fd_pr__nfet_01v8 ad=1.155 pd=7.33 as=1.155 ps=7.33 w=7 l=0.9
X143 gnd.t294 commonsourceibias.t108 CSoutput.t111 gnd.t258 sky130_fd_pr__nfet_01v8 ad=2.73 pd=14.78 as=1.155 ps=7.33 w=7 l=1
X144 vdd.t32 CSoutput.t160 output.t10 gnd.t16 sky130_fd_pr__nfet_01v8_lvt ad=0.825 pd=5.33 as=0.825 ps=5.33 w=5 l=1
X145 diffpairibias.t11 diffpairibias.t10 gnd.t50 gnd.t49 sky130_fd_pr__nfet_01v8 ad=2.73 pd=14.78 as=2.73 ps=14.78 w=7 l=1
X146 vdd.t131 vdd.t128 vdd.t130 vdd.t129 sky130_fd_pr__pfet_01v8_lvt ad=3.51 pd=18.78 as=0 ps=0 w=9 l=0.5
X147 vdd.t12 a_n6308_8799.t61 CSoutput.t3 vdd.t11 sky130_fd_pr__pfet_01v8_lvt ad=1.32 pd=8.33 as=1.32 ps=8.33 w=8 l=0.5
X148 gnd.t296 commonsourceibias.t109 CSoutput.t110 gnd.t266 sky130_fd_pr__nfet_01v8 ad=1.155 pd=7.33 as=1.155 ps=7.33 w=7 l=1
X149 output.t19 outputibias.t8 gnd.t11 gnd.t10 sky130_fd_pr__nfet_01v8 ad=2.34 pd=12.78 as=2.34 ps=12.78 w=6 l=2
X150 a_n6308_8799.t14 a_n2356_n452.t52 a_n1986_8322.t12 vdd.t93 sky130_fd_pr__pfet_01v8_lvt ad=1.485 pd=9.33 as=1.485 ps=9.33 w=9 l=0.5
X151 a_n1986_8322.t20 a_n2356_n452.t53 vdd.t95 vdd.t94 sky130_fd_pr__pfet_01v8_lvt ad=3.51 pd=18.78 as=1.485 ps=9.33 w=9 l=0.5
X152 vdd.t127 vdd.t124 vdd.t126 vdd.t125 sky130_fd_pr__pfet_01v8_lvt ad=3.51 pd=18.78 as=0 ps=0 w=9 l=0.5
X153 CSoutput.t109 commonsourceibias.t110 gnd.t295 gnd.t290 sky130_fd_pr__nfet_01v8 ad=1.155 pd=7.33 as=1.155 ps=7.33 w=7 l=1
X154 gnd.t293 commonsourceibias.t111 CSoutput.t108 gnd.t292 sky130_fd_pr__nfet_01v8 ad=1.155 pd=7.33 as=1.155 ps=7.33 w=7 l=1
X155 vdd.t218 a_n6308_8799.t62 CSoutput.t140 vdd.t62 sky130_fd_pr__pfet_01v8_lvt ad=3.12 pd=16.78 as=1.32 ps=8.33 w=8 l=0.5
X156 a_n2356_n452.t23 a_n2356_n452.t22 a_n1808_13878.t12 vdd.t72 sky130_fd_pr__pfet_01v8_lvt ad=1.485 pd=9.33 as=1.485 ps=9.33 w=9 l=0.5
X157 commonsourceibias.t53 commonsourceibias.t52 gnd.t291 gnd.t290 sky130_fd_pr__nfet_01v8 ad=1.155 pd=7.33 as=1.155 ps=7.33 w=7 l=1
X158 CSoutput.t141 a_n6308_8799.t63 vdd.t219 vdd.t64 sky130_fd_pr__pfet_01v8_lvt ad=1.32 pd=8.33 as=1.32 ps=8.33 w=8 l=0.5
X159 a_n6308_8799.t28 a_n2356_n452.t54 a_n1986_8322.t11 vdd.t19 sky130_fd_pr__pfet_01v8_lvt ad=1.485 pd=9.33 as=1.485 ps=9.33 w=9 l=0.5
X160 gnd.t154 gnd.t152 minus.t2 gnd.t153 sky130_fd_pr__nfet_01v8 ad=0.39 pd=2.78 as=0.165 ps=1.33 w=1 l=0.5
X161 gnd.t289 commonsourceibias.t112 CSoutput.t107 gnd.t196 sky130_fd_pr__nfet_01v8 ad=1.155 pd=7.33 as=1.155 ps=7.33 w=7 l=1
X162 CSoutput.t106 commonsourceibias.t113 gnd.t288 gnd.t215 sky130_fd_pr__nfet_01v8 ad=1.155 pd=7.33 as=1.155 ps=7.33 w=7 l=1
X163 a_n1808_13878.t11 a_n2356_n452.t34 a_n2356_n452.t35 vdd.t4 sky130_fd_pr__pfet_01v8_lvt ad=1.485 pd=9.33 as=1.485 ps=9.33 w=9 l=0.5
X164 a_n2903_n3924.t10 plus.t16 a_n6308_8799.t1 gnd.t1 sky130_fd_pr__nfet_01v8 ad=1.155 pd=7.33 as=1.155 ps=7.33 w=7 l=0.9
X165 a_n2356_n452.t5 minus.t10 a_n2903_n3924.t31 gnd.t30 sky130_fd_pr__nfet_01v8 ad=1.155 pd=7.33 as=1.155 ps=7.33 w=7 l=0.9
X166 vdd.t231 a_n2356_n452.t55 a_n1986_8322.t19 vdd.t230 sky130_fd_pr__pfet_01v8_lvt ad=1.485 pd=9.33 as=3.51 ps=18.78 w=9 l=0.5
X167 gnd.t151 gnd.t148 gnd.t150 gnd.t149 sky130_fd_pr__nfet_01v8 ad=2.73 pd=14.78 as=0 ps=0 w=7 l=1
X168 a_n2903_n3924.t1 diffpairibias.t19 gnd.t8 gnd.t7 sky130_fd_pr__nfet_01v8 ad=2.73 pd=14.78 as=2.73 ps=14.78 w=7 l=1
X169 CSoutput.t105 commonsourceibias.t114 gnd.t287 gnd.t277 sky130_fd_pr__nfet_01v8 ad=1.155 pd=7.33 as=1.155 ps=7.33 w=7 l=1
X170 CSoutput.t146 a_n6308_8799.t64 vdd.t224 vdd.t210 sky130_fd_pr__pfet_01v8_lvt ad=1.32 pd=8.33 as=1.32 ps=8.33 w=8 l=0.5
X171 CSoutput.t104 commonsourceibias.t115 gnd.t286 gnd.t285 sky130_fd_pr__nfet_01v8 ad=1.155 pd=7.33 as=1.155 ps=7.33 w=7 l=1
X172 a_n6308_8799.t26 plus.t17 a_n2903_n3924.t9 gnd.t179 sky130_fd_pr__nfet_01v8 ad=1.155 pd=7.33 as=1.155 ps=7.33 w=7 l=0.9
X173 CSoutput.t103 commonsourceibias.t116 gnd.t284 gnd.t198 sky130_fd_pr__nfet_01v8 ad=1.155 pd=7.33 as=1.155 ps=7.33 w=7 l=1
X174 a_n2903_n3924.t22 diffpairibias.t20 gnd.t13 gnd.t12 sky130_fd_pr__nfet_01v8 ad=2.73 pd=14.78 as=2.73 ps=14.78 w=7 l=1
X175 vdd.t225 a_n6308_8799.t65 CSoutput.t147 vdd.t47 sky130_fd_pr__pfet_01v8_lvt ad=3.12 pd=16.78 as=1.32 ps=8.33 w=8 l=0.5
X176 CSoutput.t102 commonsourceibias.t117 gnd.t283 gnd.t282 sky130_fd_pr__nfet_01v8 ad=1.155 pd=7.33 as=2.73 ps=14.78 w=7 l=1
X177 gnd.t281 commonsourceibias.t118 CSoutput.t101 gnd.t280 sky130_fd_pr__nfet_01v8 ad=2.73 pd=14.78 as=1.155 ps=7.33 w=7 l=1
X178 gnd.t193 commonsourceibias.t119 CSoutput.t100 gnd.t192 sky130_fd_pr__nfet_01v8 ad=1.155 pd=7.33 as=1.155 ps=7.33 w=7 l=1
X179 CSoutput.t99 commonsourceibias.t120 gnd.t279 gnd.t232 sky130_fd_pr__nfet_01v8 ad=1.155 pd=7.33 as=1.155 ps=7.33 w=7 l=1
X180 vdd.t29 CSoutput.t161 output.t9 gnd.t17 sky130_fd_pr__nfet_01v8_lvt ad=0.825 pd=5.33 as=0.825 ps=5.33 w=5 l=1
X181 commonsourceibias.t13 commonsourceibias.t12 gnd.t278 gnd.t277 sky130_fd_pr__nfet_01v8 ad=1.155 pd=7.33 as=1.155 ps=7.33 w=7 l=1
X182 a_n6308_8799.t24 plus.t18 a_n2903_n3924.t8 gnd.t65 sky130_fd_pr__nfet_01v8 ad=1.155 pd=7.33 as=1.155 ps=7.33 w=7 l=0.9
X183 gnd.t147 gnd.t145 gnd.t146 gnd.t72 sky130_fd_pr__nfet_01v8 ad=2.73 pd=14.78 as=0 ps=0 w=7 l=1
X184 vdd.t51 a_n6308_8799.t66 CSoutput.t12 vdd.t50 sky130_fd_pr__pfet_01v8_lvt ad=1.32 pd=8.33 as=1.32 ps=8.33 w=8 l=0.5
X185 gnd.t276 commonsourceibias.t121 CSoutput.t98 gnd.t254 sky130_fd_pr__nfet_01v8 ad=1.155 pd=7.33 as=1.155 ps=7.33 w=7 l=1
X186 gnd.t144 gnd.t141 gnd.t143 gnd.t142 sky130_fd_pr__nfet_01v8 ad=2.34 pd=12.78 as=0 ps=0 w=6 l=2
X187 CSoutput.t97 commonsourceibias.t122 gnd.t275 gnd.t250 sky130_fd_pr__nfet_01v8 ad=1.155 pd=7.33 as=1.155 ps=7.33 w=7 l=1
X188 gnd.t140 gnd.t138 gnd.t139 gnd.t102 sky130_fd_pr__nfet_01v8 ad=2.73 pd=14.78 as=0 ps=0 w=7 l=1
X189 diffpairibias.t9 diffpairibias.t8 gnd.t62 gnd.t61 sky130_fd_pr__nfet_01v8 ad=2.73 pd=14.78 as=2.73 ps=14.78 w=7 l=1
X190 a_n2356_n452.t4 minus.t11 a_n2903_n3924.t30 gnd.t58 sky130_fd_pr__nfet_01v8 ad=1.155 pd=7.33 as=1.155 ps=7.33 w=7 l=0.9
X191 CSoutput.t13 a_n6308_8799.t67 vdd.t52 vdd.t2 sky130_fd_pr__pfet_01v8_lvt ad=1.32 pd=8.33 as=1.32 ps=8.33 w=8 l=0.5
X192 a_n2903_n3924.t7 plus.t19 a_n6308_8799.t25 gnd.t68 sky130_fd_pr__nfet_01v8 ad=1.155 pd=7.33 as=1.155 ps=7.33 w=7 l=0.9
X193 CSoutput.t56 a_n6308_8799.t68 vdd.t209 vdd.t175 sky130_fd_pr__pfet_01v8_lvt ad=1.32 pd=8.33 as=1.32 ps=8.33 w=8 l=0.5
X194 CSoutput.t96 commonsourceibias.t123 gnd.t274 gnd.t194 sky130_fd_pr__nfet_01v8 ad=1.155 pd=7.33 as=2.73 ps=14.78 w=7 l=1
X195 gnd.t273 commonsourceibias.t124 CSoutput.t95 gnd.t245 sky130_fd_pr__nfet_01v8 ad=1.155 pd=7.33 as=1.155 ps=7.33 w=7 l=1
X196 vdd.t123 vdd.t121 vdd.t122 vdd.t104 sky130_fd_pr__pfet_01v8_lvt ad=3.12 pd=16.78 as=0 ps=0 w=8 l=0.5
X197 a_n1808_13878.t5 a_n2356_n452.t56 vdd.t14 vdd.t13 sky130_fd_pr__pfet_01v8_lvt ad=1.485 pd=9.33 as=1.485 ps=9.33 w=9 l=0.5
X198 vdd.t16 a_n2356_n452.t57 a_n1808_13878.t4 vdd.t15 sky130_fd_pr__pfet_01v8_lvt ad=1.485 pd=9.33 as=1.485 ps=9.33 w=9 l=0.5
X199 gnd.t272 commonsourceibias.t10 commonsourceibias.t11 gnd.t217 sky130_fd_pr__nfet_01v8 ad=1.155 pd=7.33 as=1.155 ps=7.33 w=7 l=1
X200 gnd.t271 commonsourceibias.t125 CSoutput.t94 gnd.t258 sky130_fd_pr__nfet_01v8 ad=2.73 pd=14.78 as=1.155 ps=7.33 w=7 l=1
X201 gnd.t270 commonsourceibias.t126 CSoutput.t93 gnd.t243 sky130_fd_pr__nfet_01v8 ad=1.155 pd=7.33 as=1.155 ps=7.33 w=7 l=1
X202 gnd.t269 commonsourceibias.t127 CSoutput.t92 gnd.t266 sky130_fd_pr__nfet_01v8 ad=1.155 pd=7.33 as=1.155 ps=7.33 w=7 l=1
X203 a_n2903_n3924.t29 minus.t12 a_n2356_n452.t3 gnd.t35 sky130_fd_pr__nfet_01v8 ad=1.155 pd=7.33 as=1.155 ps=7.33 w=7 l=0.9
X204 CSoutput.t91 commonsourceibias.t128 gnd.t268 gnd.t241 sky130_fd_pr__nfet_01v8 ad=1.155 pd=7.33 as=1.155 ps=7.33 w=7 l=1
X205 diffpairibias.t7 diffpairibias.t6 gnd.t21 gnd.t20 sky130_fd_pr__nfet_01v8 ad=2.73 pd=14.78 as=2.73 ps=14.78 w=7 l=1
X206 CSoutput.t57 a_n6308_8799.t69 vdd.t211 vdd.t210 sky130_fd_pr__pfet_01v8_lvt ad=1.32 pd=8.33 as=1.32 ps=8.33 w=8 l=0.5
X207 output.t8 CSoutput.t162 vdd.t28 gnd.t26 sky130_fd_pr__nfet_01v8_lvt ad=0.825 pd=5.33 as=0.825 ps=5.33 w=5 l=1
X208 vdd.t41 CSoutput.t163 output.t7 gnd.t27 sky130_fd_pr__nfet_01v8_lvt ad=0.825 pd=5.33 as=0.825 ps=5.33 w=5 l=1
X209 gnd.t267 commonsourceibias.t28 commonsourceibias.t29 gnd.t266 sky130_fd_pr__nfet_01v8 ad=1.155 pd=7.33 as=1.155 ps=7.33 w=7 l=1
X210 vdd.t48 a_n6308_8799.t70 CSoutput.t10 vdd.t47 sky130_fd_pr__pfet_01v8_lvt ad=3.12 pd=16.78 as=1.32 ps=8.33 w=8 l=0.5
X211 CSoutput.t90 commonsourceibias.t129 gnd.t265 gnd.t239 sky130_fd_pr__nfet_01v8 ad=1.155 pd=7.33 as=1.155 ps=7.33 w=7 l=1
X212 gnd.t137 gnd.t134 gnd.t136 gnd.t135 sky130_fd_pr__nfet_01v8 ad=2.73 pd=14.78 as=0 ps=0 w=7 l=0.9
X213 a_n2903_n3924.t28 minus.t13 a_n2356_n452.t2 gnd.t66 sky130_fd_pr__nfet_01v8 ad=1.155 pd=7.33 as=1.155 ps=7.33 w=7 l=0.9
X214 gnd.t133 gnd.t131 gnd.t132 gnd.t102 sky130_fd_pr__nfet_01v8 ad=2.73 pd=14.78 as=0 ps=0 w=7 l=1
X215 a_n1986_8322.t10 a_n2356_n452.t58 a_n6308_8799.t18 vdd.t172 sky130_fd_pr__pfet_01v8_lvt ad=1.485 pd=9.33 as=1.485 ps=9.33 w=9 l=0.5
X216 minus.t1 gnd.t128 gnd.t130 gnd.t129 sky130_fd_pr__nfet_01v8 ad=0.165 pd=1.33 as=0.165 ps=1.33 w=1 l=0.5
X217 gnd.t127 gnd.t125 plus.t2 gnd.t126 sky130_fd_pr__nfet_01v8 ad=0.165 pd=1.33 as=0.165 ps=1.33 w=1 l=0.5
X218 gnd.t264 commonsourceibias.t130 CSoutput.t89 gnd.t196 sky130_fd_pr__nfet_01v8 ad=1.155 pd=7.33 as=1.155 ps=7.33 w=7 l=1
X219 CSoutput.t88 commonsourceibias.t131 gnd.t263 gnd.t215 sky130_fd_pr__nfet_01v8 ad=1.155 pd=7.33 as=1.155 ps=7.33 w=7 l=1
X220 a_n2903_n3924.t35 minus.t14 a_n2356_n452.t9 gnd.t63 sky130_fd_pr__nfet_01v8 ad=2.73 pd=14.78 as=1.155 ps=7.33 w=7 l=0.9
X221 gnd.t124 gnd.t121 gnd.t123 gnd.t122 sky130_fd_pr__nfet_01v8_lvt ad=1.95 pd=10.78 as=0 ps=0 w=5 l=1
X222 vdd.t49 a_n6308_8799.t71 CSoutput.t11 vdd.t24 sky130_fd_pr__pfet_01v8_lvt ad=1.32 pd=8.33 as=1.32 ps=8.33 w=8 l=0.5
X223 CSoutput.t36 a_n6308_8799.t72 vdd.t178 vdd.t22 sky130_fd_pr__pfet_01v8_lvt ad=1.32 pd=8.33 as=1.32 ps=8.33 w=8 l=0.5
X224 vdd.t179 a_n6308_8799.t73 CSoutput.t37 vdd.t50 sky130_fd_pr__pfet_01v8_lvt ad=1.32 pd=8.33 as=1.32 ps=8.33 w=8 l=0.5
X225 vdd.t174 a_n2356_n452.t59 a_n1986_8322.t18 vdd.t173 sky130_fd_pr__pfet_01v8_lvt ad=1.485 pd=9.33 as=3.51 ps=18.78 w=9 l=0.5
X226 gnd.t262 commonsourceibias.t26 commonsourceibias.t27 gnd.t226 sky130_fd_pr__nfet_01v8 ad=1.155 pd=7.33 as=1.155 ps=7.33 w=7 l=1
X227 a_n1808_13878.t3 a_n2356_n452.t60 vdd.t71 vdd.t70 sky130_fd_pr__pfet_01v8_lvt ad=3.51 pd=18.78 as=1.485 ps=9.33 w=9 l=0.5
X228 gnd.t120 gnd.t117 gnd.t119 gnd.t118 sky130_fd_pr__nfet_01v8 ad=2.73 pd=14.78 as=0 ps=0 w=7 l=1
X229 CSoutput.t87 commonsourceibias.t132 gnd.t261 gnd.t234 sky130_fd_pr__nfet_01v8 ad=1.155 pd=7.33 as=1.155 ps=7.33 w=7 l=1
X230 CSoutput.t164 a_n1986_8322.t1 sky130_fd_pr__cap_mim_m3_1 l=12 w=12
X231 a_n2903_n3924.t25 diffpairibias.t21 gnd.t60 gnd.t59 sky130_fd_pr__nfet_01v8 ad=2.73 pd=14.78 as=2.73 ps=14.78 w=7 l=1
X232 vdd.t207 a_n6308_8799.t74 CSoutput.t54 vdd.t79 sky130_fd_pr__pfet_01v8_lvt ad=1.32 pd=8.33 as=1.32 ps=8.33 w=8 l=0.5
X233 vdd.t120 vdd.t118 vdd.t119 vdd.t108 sky130_fd_pr__pfet_01v8_lvt ad=3.12 pd=16.78 as=0 ps=0 w=8 l=0.5
X234 CSoutput.t55 a_n6308_8799.t75 vdd.t208 vdd.t175 sky130_fd_pr__pfet_01v8_lvt ad=1.32 pd=8.33 as=1.32 ps=8.33 w=8 l=0.5
X235 a_n6308_8799.t6 plus.t20 a_n2903_n3924.t6 gnd.t9 sky130_fd_pr__nfet_01v8 ad=1.155 pd=7.33 as=1.155 ps=7.33 w=7 l=0.9
X236 a_n2356_n452.t16 minus.t15 a_n2903_n3924.t42 gnd.t22 sky130_fd_pr__nfet_01v8 ad=1.155 pd=7.33 as=1.155 ps=7.33 w=7 l=0.9
X237 CSoutput.t86 commonsourceibias.t133 gnd.t260 gnd.t198 sky130_fd_pr__nfet_01v8 ad=1.155 pd=7.33 as=1.155 ps=7.33 w=7 l=1
X238 CSoutput.t8 a_n6308_8799.t76 vdd.t45 vdd.t44 sky130_fd_pr__pfet_01v8_lvt ad=1.32 pd=8.33 as=1.32 ps=8.33 w=8 l=0.5
X239 a_n2903_n3924.t41 minus.t16 a_n2356_n452.t15 gnd.t54 sky130_fd_pr__nfet_01v8 ad=2.73 pd=14.78 as=1.155 ps=7.33 w=7 l=0.9
X240 gnd.t257 commonsourceibias.t134 CSoutput.t85 gnd.t192 sky130_fd_pr__nfet_01v8 ad=1.155 pd=7.33 as=1.155 ps=7.33 w=7 l=1
X241 vdd.t117 vdd.t115 vdd.t116 vdd.t104 sky130_fd_pr__pfet_01v8_lvt ad=3.12 pd=16.78 as=0 ps=0 w=8 l=0.5
X242 CSoutput.t84 commonsourceibias.t135 gnd.t256 gnd.t232 sky130_fd_pr__nfet_01v8 ad=1.155 pd=7.33 as=1.155 ps=7.33 w=7 l=1
X243 gnd.t259 commonsourceibias.t24 commonsourceibias.t25 gnd.t258 sky130_fd_pr__nfet_01v8 ad=2.73 pd=14.78 as=1.155 ps=7.33 w=7 l=1
X244 gnd.t255 commonsourceibias.t18 commonsourceibias.t19 gnd.t254 sky130_fd_pr__nfet_01v8 ad=1.155 pd=7.33 as=1.155 ps=7.33 w=7 l=1
X245 a_n1986_8322.t9 a_n2356_n452.t61 a_n6308_8799.t7 vdd.t72 sky130_fd_pr__pfet_01v8_lvt ad=1.485 pd=9.33 as=1.485 ps=9.33 w=9 l=0.5