* NGSPICE file created from opamp204.ext - technology: sky130A

.subckt opamp204 gnd CSoutput output vdd plus minus commonsourceibias outputibias
+ diffpairibias
X0 gnd commonsourceibias commonsourceibias gnd sky130_fd_pr__nfet_01v8 ad=1.155 pd=7.33 as=1.155 ps=7.33 w=7 l=1
X1 a_n5644_8799# plus a_n3827_n3924# gnd sky130_fd_pr__nfet_01v8 ad=1.155 pd=7.33 as=1.155 ps=7.33 w=7 l=0.7
X2 a_n1808_13878# a_n1986_13878# vdd vdd sky130_fd_pr__pfet_01v8 ad=1.485 pd=9.33 as=1.485 ps=9.33 w=9 l=0.5
X3 a_n1808_13878# a_n1986_13878# a_n1986_13878# vdd sky130_fd_pr__pfet_01v8 ad=1.485 pd=9.33 as=1.485 ps=9.33 w=9 l=0.5
X4 gnd commonsourceibias CSoutput gnd sky130_fd_pr__nfet_01v8 ad=1.155 pd=7.33 as=1.155 ps=7.33 w=7 l=1
X5 gnd commonsourceibias CSoutput gnd sky130_fd_pr__nfet_01v8 ad=1.155 pd=7.33 as=1.155 ps=7.33 w=7 l=1
X6 CSoutput commonsourceibias gnd gnd sky130_fd_pr__nfet_01v8 ad=1.155 pd=7.33 as=1.155 ps=7.33 w=7 l=1
X7 CSoutput a_n5644_8799# vdd vdd sky130_fd_pr__pfet_01v8 ad=1.32 pd=8.33 as=1.32 ps=8.33 w=8 l=0.5
X8 commonsourceibias commonsourceibias gnd gnd sky130_fd_pr__nfet_01v8 ad=1.155 pd=7.33 as=1.155 ps=7.33 w=7 l=1
X9 gnd commonsourceibias CSoutput gnd sky130_fd_pr__nfet_01v8 ad=1.155 pd=7.33 as=1.155 ps=7.33 w=7 l=1
X10 gnd commonsourceibias commonsourceibias gnd sky130_fd_pr__nfet_01v8 ad=1.155 pd=7.33 as=1.155 ps=7.33 w=7 l=1
X11 a_n3827_n3924# diffpairibias gnd gnd sky130_fd_pr__nfet_01v8 ad=2.73 pd=14.78 as=2.73 ps=14.78 w=7 l=1
X12 CSoutput commonsourceibias gnd gnd sky130_fd_pr__nfet_01v8 ad=1.155 pd=7.33 as=1.155 ps=7.33 w=7 l=1
X13 vdd vdd vdd vdd sky130_fd_pr__pfet_01v8 ad=3.12 pd=16.78 as=253.8 ps=1.42884k w=8 l=0.5
X14 a_n3827_n3924# plus a_n5644_8799# gnd sky130_fd_pr__nfet_01v8 ad=1.155 pd=7.33 as=1.155 ps=7.33 w=7 l=0.7
X15 plus gnd gnd gnd sky130_fd_pr__nfet_01v8 ad=0.165 pd=1.33 as=0.165 ps=1.33 w=1 l=0.5
X16 gnd commonsourceibias commonsourceibias gnd sky130_fd_pr__nfet_01v8 ad=1.155 pd=7.33 as=1.155 ps=7.33 w=7 l=1
X17 a_n1986_8322# a_n1986_13878# a_n5644_8799# vdd sky130_fd_pr__pfet_01v8 ad=1.485 pd=9.33 as=1.485 ps=9.33 w=9 l=0.5
X18 commonsourceibias commonsourceibias gnd gnd sky130_fd_pr__nfet_01v8 ad=1.155 pd=7.33 as=1.155 ps=7.33 w=7 l=1
X19 gnd commonsourceibias CSoutput gnd sky130_fd_pr__nfet_01v8 ad=1.155 pd=7.33 as=1.155 ps=7.33 w=7 l=1
X20 gnd gnd gnd gnd sky130_fd_pr__nfet_01v8 ad=2.73 pd=14.78 as=422.7 ps=2.4506k w=7 l=1
X21 CSoutput commonsourceibias gnd gnd sky130_fd_pr__nfet_01v8 ad=1.155 pd=7.33 as=1.155 ps=7.33 w=7 l=1
X22 vdd a_n5644_8799# CSoutput vdd sky130_fd_pr__pfet_01v8 ad=3.12 pd=16.78 as=1.32 ps=8.33 w=8 l=0.5
X23 gnd gnd gnd gnd sky130_fd_pr__nfet_01v8 ad=2.34 pd=12.78 as=0 ps=0 w=6 l=2
X24 CSoutput commonsourceibias gnd gnd sky130_fd_pr__nfet_01v8 ad=1.155 pd=7.33 as=1.155 ps=7.33 w=7 l=1
X25 a_n1986_13878# minus a_n3827_n3924# gnd sky130_fd_pr__nfet_01v8 ad=1.155 pd=7.33 as=1.155 ps=7.33 w=7 l=0.7
X26 CSoutput a_n5644_8799# vdd vdd sky130_fd_pr__pfet_01v8 ad=1.32 pd=8.33 as=3.12 ps=16.78 w=8 l=0.5
X27 commonsourceibias commonsourceibias gnd gnd sky130_fd_pr__nfet_01v8 ad=1.155 pd=7.33 as=1.155 ps=7.33 w=7 l=1
X28 vdd a_n5644_8799# CSoutput vdd sky130_fd_pr__pfet_01v8 ad=1.32 pd=8.33 as=1.32 ps=8.33 w=8 l=0.5
X29 a_n5644_8799# a_n1986_13878# a_n1986_8322# vdd sky130_fd_pr__pfet_01v8 ad=1.485 pd=9.33 as=3.51 ps=18.78 w=9 l=0.5
X30 CSoutput a_n5644_8799# vdd vdd sky130_fd_pr__pfet_01v8 ad=1.32 pd=8.33 as=3.12 ps=16.78 w=8 l=0.5
X31 gnd commonsourceibias CSoutput gnd sky130_fd_pr__nfet_01v8 ad=1.155 pd=7.33 as=1.155 ps=7.33 w=7 l=1
X32 gnd gnd gnd gnd sky130_fd_pr__nfet_01v8 ad=2.73 pd=14.78 as=0 ps=0 w=7 l=1
X33 CSoutput commonsourceibias gnd gnd sky130_fd_pr__nfet_01v8 ad=1.155 pd=7.33 as=1.155 ps=7.33 w=7 l=1
X34 a_n3827_n3924# minus a_n1986_13878# gnd sky130_fd_pr__nfet_01v8 ad=2.73 pd=14.78 as=1.155 ps=7.33 w=7 l=0.7
X35 CSoutput commonsourceibias gnd gnd sky130_fd_pr__nfet_01v8 ad=1.155 pd=7.33 as=1.155 ps=7.33 w=7 l=1
X36 gnd gnd minus gnd sky130_fd_pr__nfet_01v8 ad=0.165 pd=1.33 as=0.39 ps=2.78 w=1 l=0.5
X37 gnd commonsourceibias commonsourceibias gnd sky130_fd_pr__nfet_01v8 ad=1.155 pd=7.33 as=1.155 ps=7.33 w=7 l=1
X38 outputibias outputibias gnd gnd sky130_fd_pr__nfet_01v8 ad=2.34 pd=12.78 as=2.34 ps=12.78 w=6 l=2
X39 gnd commonsourceibias commonsourceibias gnd sky130_fd_pr__nfet_01v8 ad=2.73 pd=14.78 as=1.155 ps=7.33 w=7 l=1
X40 CSoutput commonsourceibias gnd gnd sky130_fd_pr__nfet_01v8 ad=1.155 pd=7.33 as=1.155 ps=7.33 w=7 l=1
X41 vdd vdd vdd vdd sky130_fd_pr__pfet_01v8 ad=3.12 pd=16.78 as=0 ps=0 w=8 l=0.5
X42 a_n3827_n3924# diffpairibias gnd gnd sky130_fd_pr__nfet_01v8 ad=2.73 pd=14.78 as=2.73 ps=14.78 w=7 l=1
X43 CSoutput a_n5644_8799# vdd vdd sky130_fd_pr__pfet_01v8 ad=1.32 pd=8.33 as=1.32 ps=8.33 w=8 l=0.5
X44 commonsourceibias commonsourceibias gnd gnd sky130_fd_pr__nfet_01v8 ad=1.155 pd=7.33 as=1.155 ps=7.33 w=7 l=1
X45 gnd gnd gnd gnd sky130_fd_pr__nfet_01v8 ad=2.73 pd=14.78 as=0 ps=0 w=7 l=0.7
X46 CSoutput commonsourceibias gnd gnd sky130_fd_pr__nfet_01v8 ad=1.155 pd=7.33 as=1.155 ps=7.33 w=7 l=1
X47 a_n3827_n3924# plus a_n5644_8799# gnd sky130_fd_pr__nfet_01v8 ad=1.155 pd=7.33 as=1.155 ps=7.33 w=7 l=0.7
X48 gnd commonsourceibias commonsourceibias gnd sky130_fd_pr__nfet_01v8 ad=1.155 pd=7.33 as=1.155 ps=7.33 w=7 l=1
X49 CSoutput commonsourceibias gnd gnd sky130_fd_pr__nfet_01v8 ad=1.155 pd=7.33 as=2.73 ps=14.78 w=7 l=1
X50 vdd a_n5644_8799# CSoutput vdd sky130_fd_pr__pfet_01v8 ad=1.32 pd=8.33 as=1.32 ps=8.33 w=8 l=0.5
X51 a_n1808_13878# a_n1986_13878# a_n1986_13878# vdd sky130_fd_pr__pfet_01v8 ad=1.485 pd=9.33 as=3.51 ps=18.78 w=9 l=0.5
X52 CSoutput a_n5644_8799# vdd vdd sky130_fd_pr__pfet_01v8 ad=1.32 pd=8.33 as=1.32 ps=8.33 w=8 l=0.5
X53 a_n1986_13878# a_n1986_13878# a_n1808_13878# vdd sky130_fd_pr__pfet_01v8 ad=1.485 pd=9.33 as=1.485 ps=9.33 w=9 l=0.5
X54 a_n5644_8799# plus a_n3827_n3924# gnd sky130_fd_pr__nfet_01v8 ad=1.155 pd=7.33 as=1.155 ps=7.33 w=7 l=0.7
X55 vdd vdd vdd vdd sky130_fd_pr__pfet_01v8 ad=3.51 pd=18.78 as=0 ps=0 w=9 l=0.5
X56 CSoutput commonsourceibias gnd gnd sky130_fd_pr__nfet_01v8 ad=1.155 pd=7.33 as=2.73 ps=14.78 w=7 l=1
X57 vdd CSoutput output gnd sky130_fd_pr__nfet_01v8 ad=0.825 pd=5.33 as=0.825 ps=5.33 w=5 l=1
X58 gnd commonsourceibias CSoutput gnd sky130_fd_pr__nfet_01v8 ad=1.155 pd=7.33 as=1.155 ps=7.33 w=7 l=1
X59 diffpairibias diffpairibias gnd gnd sky130_fd_pr__nfet_01v8 ad=2.73 pd=14.78 as=2.73 ps=14.78 w=7 l=1
X60 CSoutput commonsourceibias gnd gnd sky130_fd_pr__nfet_01v8 ad=1.155 pd=7.33 as=1.155 ps=7.33 w=7 l=1
X61 a_n1986_13878# minus a_n3827_n3924# gnd sky130_fd_pr__nfet_01v8 ad=1.155 pd=7.33 as=1.155 ps=7.33 w=7 l=0.7
X62 CSoutput commonsourceibias gnd gnd sky130_fd_pr__nfet_01v8 ad=1.155 pd=7.33 as=1.155 ps=7.33 w=7 l=1
X63 CSoutput commonsourceibias gnd gnd sky130_fd_pr__nfet_01v8 ad=1.155 pd=7.33 as=1.155 ps=7.33 w=7 l=1
X64 vdd vdd vdd vdd sky130_fd_pr__pfet_01v8 ad=3.12 pd=16.78 as=0 ps=0 w=8 l=0.5
X65 commonsourceibias commonsourceibias gnd gnd sky130_fd_pr__nfet_01v8 ad=1.155 pd=7.33 as=1.155 ps=7.33 w=7 l=1
X66 gnd gnd gnd gnd sky130_fd_pr__nfet_01v8 ad=2.73 pd=14.78 as=0 ps=0 w=7 l=1
X67 CSoutput commonsourceibias gnd gnd sky130_fd_pr__nfet_01v8 ad=1.155 pd=7.33 as=1.155 ps=7.33 w=7 l=1
X68 vdd a_n5644_8799# CSoutput vdd sky130_fd_pr__pfet_01v8 ad=1.32 pd=8.33 as=1.32 ps=8.33 w=8 l=0.5
X69 vdd a_n5644_8799# CSoutput vdd sky130_fd_pr__pfet_01v8 ad=1.32 pd=8.33 as=1.32 ps=8.33 w=8 l=0.5
X70 diffpairibias diffpairibias gnd gnd sky130_fd_pr__nfet_01v8 ad=2.73 pd=14.78 as=2.73 ps=14.78 w=7 l=1
X71 CSoutput a_n5644_8799# vdd vdd sky130_fd_pr__pfet_01v8 ad=1.32 pd=8.33 as=3.12 ps=16.78 w=8 l=0.5
X72 gnd gnd gnd gnd sky130_fd_pr__nfet_01v8 ad=2.73 pd=14.78 as=0 ps=0 w=7 l=1
X73 CSoutput commonsourceibias gnd gnd sky130_fd_pr__nfet_01v8 ad=1.155 pd=7.33 as=2.73 ps=14.78 w=7 l=1
X74 vdd a_n5644_8799# CSoutput vdd sky130_fd_pr__pfet_01v8 ad=1.32 pd=8.33 as=1.32 ps=8.33 w=8 l=0.5
X75 CSoutput commonsourceibias gnd gnd sky130_fd_pr__nfet_01v8 ad=1.155 pd=7.33 as=1.155 ps=7.33 w=7 l=1
X76 CSoutput a_n5644_8799# vdd vdd sky130_fd_pr__pfet_01v8 ad=1.32 pd=8.33 as=1.32 ps=8.33 w=8 l=0.5
X77 gnd gnd gnd gnd sky130_fd_pr__nfet_01v8 ad=2.73 pd=14.78 as=0 ps=0 w=7 l=1
X78 CSoutput a_n5644_8799# vdd vdd sky130_fd_pr__pfet_01v8 ad=1.32 pd=8.33 as=1.32 ps=8.33 w=8 l=0.5
X79 CSoutput a_n5644_8799# vdd vdd sky130_fd_pr__pfet_01v8 ad=1.32 pd=8.33 as=1.32 ps=8.33 w=8 l=0.5
X80 vdd a_n5644_8799# CSoutput vdd sky130_fd_pr__pfet_01v8 ad=1.32 pd=8.33 as=1.32 ps=8.33 w=8 l=0.5
X81 gnd commonsourceibias CSoutput gnd sky130_fd_pr__nfet_01v8 ad=1.155 pd=7.33 as=1.155 ps=7.33 w=7 l=1
X82 CSoutput commonsourceibias gnd gnd sky130_fd_pr__nfet_01v8 ad=1.155 pd=7.33 as=1.155 ps=7.33 w=7 l=1
X83 gnd commonsourceibias CSoutput gnd sky130_fd_pr__nfet_01v8 ad=2.73 pd=14.78 as=1.155 ps=7.33 w=7 l=1
X84 a_n3827_n3924# plus a_n5644_8799# gnd sky130_fd_pr__nfet_01v8 ad=2.73 pd=14.78 as=1.155 ps=7.33 w=7 l=0.7
X85 gnd gnd minus gnd sky130_fd_pr__nfet_01v8 ad=0.165 pd=1.33 as=0.165 ps=1.33 w=1 l=0.5
X86 gnd gnd gnd gnd sky130_fd_pr__nfet_01v8 ad=2.73 pd=14.78 as=0 ps=0 w=7 l=1
X87 output outputibias gnd gnd sky130_fd_pr__nfet_01v8 ad=2.34 pd=12.78 as=2.34 ps=12.78 w=6 l=2
X88 a_n3827_n3924# diffpairibias gnd gnd sky130_fd_pr__nfet_01v8 ad=2.73 pd=14.78 as=2.73 ps=14.78 w=7 l=1
X89 CSoutput commonsourceibias gnd gnd sky130_fd_pr__nfet_01v8 ad=1.155 pd=7.33 as=1.155 ps=7.33 w=7 l=1
X90 a_n1986_13878# a_n1986_13878# a_n1808_13878# vdd sky130_fd_pr__pfet_01v8 ad=1.485 pd=9.33 as=1.485 ps=9.33 w=9 l=0.5
X91 a_n5644_8799# a_n1986_13878# a_n1986_8322# vdd sky130_fd_pr__pfet_01v8 ad=1.485 pd=9.33 as=1.485 ps=9.33 w=9 l=0.5
X92 vdd a_n5644_8799# CSoutput vdd sky130_fd_pr__pfet_01v8 ad=3.12 pd=16.78 as=1.32 ps=8.33 w=8 l=0.5
X93 a_n1986_13878# a_n1986_13878# a_n1808_13878# vdd sky130_fd_pr__pfet_01v8 ad=3.51 pd=18.78 as=1.485 ps=9.33 w=9 l=0.5
X94 gnd commonsourceibias CSoutput gnd sky130_fd_pr__nfet_01v8 ad=1.155 pd=7.33 as=1.155 ps=7.33 w=7 l=1
X95 vdd CSoutput output gnd sky130_fd_pr__nfet_01v8 ad=0.825 pd=5.33 as=0.825 ps=5.33 w=5 l=1
X96 vdd a_n5644_8799# CSoutput vdd sky130_fd_pr__pfet_01v8 ad=1.32 pd=8.33 as=1.32 ps=8.33 w=8 l=0.5
X97 commonsourceibias commonsourceibias gnd gnd sky130_fd_pr__nfet_01v8 ad=1.155 pd=7.33 as=1.155 ps=7.33 w=7 l=1
X98 gnd commonsourceibias CSoutput gnd sky130_fd_pr__nfet_01v8 ad=1.155 pd=7.33 as=1.155 ps=7.33 w=7 l=1
X99 gnd gnd gnd gnd sky130_fd_pr__nfet_01v8 ad=1.95 pd=10.78 as=0 ps=0 w=5 l=1
X100 CSoutput commonsourceibias gnd gnd sky130_fd_pr__nfet_01v8 ad=1.155 pd=7.33 as=1.155 ps=7.33 w=7 l=1
X101 CSoutput a_n1986_8322# sky130_fd_pr__cap_mim_m3_1 l=12 w=12
X102 gnd commonsourceibias commonsourceibias gnd sky130_fd_pr__nfet_01v8 ad=1.155 pd=7.33 as=1.155 ps=7.33 w=7 l=1
X103 CSoutput commonsourceibias gnd gnd sky130_fd_pr__nfet_01v8 ad=1.155 pd=7.33 as=1.155 ps=7.33 w=7 l=1
X104 vdd vdd vdd vdd sky130_fd_pr__pfet_01v8 ad=3.12 pd=16.78 as=0 ps=0 w=8 l=0.5
X105 diffpairibias diffpairibias gnd gnd sky130_fd_pr__nfet_01v8 ad=2.73 pd=14.78 as=2.73 ps=14.78 w=7 l=1
X106 a_n1986_13878# minus a_n3827_n3924# gnd sky130_fd_pr__nfet_01v8 ad=1.155 pd=7.33 as=1.155 ps=7.33 w=7 l=0.7
X107 vdd vdd vdd vdd sky130_fd_pr__pfet_01v8 ad=3.51 pd=18.78 as=0 ps=0 w=9 l=0.5
X108 vdd a_n5644_8799# CSoutput vdd sky130_fd_pr__pfet_01v8 ad=1.32 pd=8.33 as=1.32 ps=8.33 w=8 l=0.5
X109 vdd vdd vdd vdd sky130_fd_pr__pfet_01v8 ad=3.51 pd=18.78 as=0 ps=0 w=9 l=0.5
X110 gnd commonsourceibias CSoutput gnd sky130_fd_pr__nfet_01v8 ad=1.155 pd=7.33 as=1.155 ps=7.33 w=7 l=1
X111 gnd gnd gnd gnd sky130_fd_pr__nfet_01v8 ad=2.73 pd=14.78 as=0 ps=0 w=7 l=0.7
X112 a_n3827_n3924# minus a_n1986_13878# gnd sky130_fd_pr__nfet_01v8 ad=1.155 pd=7.33 as=1.155 ps=7.33 w=7 l=0.7
X113 vdd vdd vdd vdd sky130_fd_pr__pfet_01v8 ad=3.51 pd=18.78 as=0 ps=0 w=9 l=0.5
X114 vdd vdd vdd vdd sky130_fd_pr__pfet_01v8 ad=3.51 pd=18.78 as=0 ps=0 w=9 l=0.5
X115 vdd a_n1986_13878# a_n1986_8322# vdd sky130_fd_pr__pfet_01v8 ad=1.485 pd=9.33 as=1.485 ps=9.33 w=9 l=0.5
X116 gnd commonsourceibias commonsourceibias gnd sky130_fd_pr__nfet_01v8 ad=1.155 pd=7.33 as=1.155 ps=7.33 w=7 l=1
X117 CSoutput commonsourceibias gnd gnd sky130_fd_pr__nfet_01v8 ad=1.155 pd=7.33 as=1.155 ps=7.33 w=7 l=1
X118 CSoutput commonsourceibias gnd gnd sky130_fd_pr__nfet_01v8 ad=1.155 pd=7.33 as=1.155 ps=7.33 w=7 l=1
X119 a_n1986_8322# a_n1986_13878# vdd vdd sky130_fd_pr__pfet_01v8 ad=1.485 pd=9.33 as=1.485 ps=9.33 w=9 l=0.5
X120 a_n3827_n3924# diffpairibias gnd gnd sky130_fd_pr__nfet_01v8 ad=2.73 pd=14.78 as=2.73 ps=14.78 w=7 l=1
X121 CSoutput a_n5644_8799# vdd vdd sky130_fd_pr__pfet_01v8 ad=1.32 pd=8.33 as=1.32 ps=8.33 w=8 l=0.5
X122 gnd commonsourceibias CSoutput gnd sky130_fd_pr__nfet_01v8 ad=1.155 pd=7.33 as=1.155 ps=7.33 w=7 l=1
X123 vdd a_n5644_8799# CSoutput vdd sky130_fd_pr__pfet_01v8 ad=1.32 pd=8.33 as=1.32 ps=8.33 w=8 l=0.5
X124 a_n3827_n3924# minus a_n1986_13878# gnd sky130_fd_pr__nfet_01v8 ad=1.155 pd=7.33 as=1.155 ps=7.33 w=7 l=0.7
X125 gnd gnd plus gnd sky130_fd_pr__nfet_01v8 ad=0.165 pd=1.33 as=0.39 ps=2.78 w=1 l=0.5
X126 commonsourceibias commonsourceibias gnd gnd sky130_fd_pr__nfet_01v8 ad=1.155 pd=7.33 as=2.73 ps=14.78 w=7 l=1
X127 vdd a_n1986_13878# a_n1808_13878# vdd sky130_fd_pr__pfet_01v8 ad=1.485 pd=9.33 as=1.485 ps=9.33 w=9 l=0.5
X128 gnd commonsourceibias CSoutput gnd sky130_fd_pr__nfet_01v8 ad=1.155 pd=7.33 as=1.155 ps=7.33 w=7 l=1
X129 commonsourceibias commonsourceibias gnd gnd sky130_fd_pr__nfet_01v8 ad=1.155 pd=7.33 as=1.155 ps=7.33 w=7 l=1
X130 a_n3827_n3924# plus a_n5644_8799# gnd sky130_fd_pr__nfet_01v8 ad=1.155 pd=7.33 as=1.155 ps=7.33 w=7 l=0.7
X131 gnd commonsourceibias commonsourceibias gnd sky130_fd_pr__nfet_01v8 ad=1.155 pd=7.33 as=1.155 ps=7.33 w=7 l=1
X132 output CSoutput vdd gnd sky130_fd_pr__nfet_01v8 ad=0.825 pd=5.33 as=0.825 ps=5.33 w=5 l=1
X133 vdd vdd vdd vdd sky130_fd_pr__pfet_01v8 ad=3.51 pd=18.78 as=0 ps=0 w=9 l=0.5
X134 CSoutput commonsourceibias gnd gnd sky130_fd_pr__nfet_01v8 ad=1.155 pd=7.33 as=1.155 ps=7.33 w=7 l=1
X135 gnd commonsourceibias CSoutput gnd sky130_fd_pr__nfet_01v8 ad=1.155 pd=7.33 as=1.155 ps=7.33 w=7 l=1
X136 vdd a_n5644_8799# CSoutput vdd sky130_fd_pr__pfet_01v8 ad=3.12 pd=16.78 as=1.32 ps=8.33 w=8 l=0.5
X137 vdd vdd vdd vdd sky130_fd_pr__pfet_01v8 ad=3.51 pd=18.78 as=0 ps=0 w=9 l=0.5
X138 CSoutput commonsourceibias gnd gnd sky130_fd_pr__nfet_01v8 ad=1.155 pd=7.33 as=1.155 ps=7.33 w=7 l=1
X139 a_n5644_8799# plus a_n3827_n3924# gnd sky130_fd_pr__nfet_01v8 ad=1.155 pd=7.33 as=2.73 ps=14.78 w=7 l=0.7
X140 a_n5644_8799# plus a_n3827_n3924# gnd sky130_fd_pr__nfet_01v8 ad=1.155 pd=7.33 as=2.73 ps=14.78 w=7 l=0.7
X141 commonsourceibias commonsourceibias gnd gnd sky130_fd_pr__nfet_01v8 ad=1.155 pd=7.33 as=1.155 ps=7.33 w=7 l=1
X142 vdd vdd vdd vdd sky130_fd_pr__pfet_01v8 ad=3.51 pd=18.78 as=0 ps=0 w=9 l=0.5
X143 a_n1986_8322# a_n1986_13878# vdd vdd sky130_fd_pr__pfet_01v8 ad=3.51 pd=18.78 as=1.485 ps=9.33 w=9 l=0.5
X144 gnd commonsourceibias CSoutput gnd sky130_fd_pr__nfet_01v8 ad=1.155 pd=7.33 as=1.155 ps=7.33 w=7 l=1
X145 a_n5644_8799# a_n1986_13878# a_n1986_8322# vdd sky130_fd_pr__pfet_01v8 ad=1.485 pd=9.33 as=1.485 ps=9.33 w=9 l=0.5
X146 diffpairibias diffpairibias gnd gnd sky130_fd_pr__nfet_01v8 ad=2.73 pd=14.78 as=2.73 ps=14.78 w=7 l=1
X147 CSoutput a_n1986_8322# sky130_fd_pr__cap_mim_m3_1 l=12 w=12
X148 a_n1986_13878# minus a_n3827_n3924# gnd sky130_fd_pr__nfet_01v8 ad=1.155 pd=7.33 as=1.155 ps=7.33 w=7 l=0.7
X149 a_n1986_13878# a_n1986_13878# a_n1808_13878# vdd sky130_fd_pr__pfet_01v8 ad=1.485 pd=9.33 as=1.485 ps=9.33 w=9 l=0.5
X150 a_n5644_8799# a_n1986_13878# a_n1986_8322# vdd sky130_fd_pr__pfet_01v8 ad=1.485 pd=9.33 as=1.485 ps=9.33 w=9 l=0.5
X151 gnd commonsourceibias commonsourceibias gnd sky130_fd_pr__nfet_01v8 ad=1.155 pd=7.33 as=1.155 ps=7.33 w=7 l=1
X152 commonsourceibias commonsourceibias gnd gnd sky130_fd_pr__nfet_01v8 ad=1.155 pd=7.33 as=1.155 ps=7.33 w=7 l=1
X153 a_n1808_13878# a_n1986_13878# a_n1986_13878# vdd sky130_fd_pr__pfet_01v8 ad=1.485 pd=9.33 as=1.485 ps=9.33 w=9 l=0.5
X154 a_n3827_n3924# minus a_n1986_13878# gnd sky130_fd_pr__nfet_01v8 ad=1.155 pd=7.33 as=1.155 ps=7.33 w=7 l=0.7
X155 gnd commonsourceibias CSoutput gnd sky130_fd_pr__nfet_01v8 ad=1.155 pd=7.33 as=1.155 ps=7.33 w=7 l=1
X156 minus gnd gnd gnd sky130_fd_pr__nfet_01v8 ad=0.165 pd=1.33 as=0.165 ps=1.33 w=1 l=0.5
X157 gnd gnd gnd gnd sky130_fd_pr__nfet_01v8 ad=2.73 pd=14.78 as=0 ps=0 w=7 l=1
X158 output CSoutput vdd gnd sky130_fd_pr__nfet_01v8 ad=0.825 pd=5.33 as=0.825 ps=5.33 w=5 l=1
X159 gnd commonsourceibias CSoutput gnd sky130_fd_pr__nfet_01v8 ad=1.155 pd=7.33 as=1.155 ps=7.33 w=7 l=1
X160 vdd a_n1986_13878# a_n1986_8322# vdd sky130_fd_pr__pfet_01v8 ad=1.485 pd=9.33 as=3.51 ps=18.78 w=9 l=0.5
X161 output outputibias gnd gnd sky130_fd_pr__nfet_01v8 ad=2.34 pd=12.78 as=2.34 ps=12.78 w=6 l=2
X162 vdd vdd vdd vdd sky130_fd_pr__pfet_01v8 ad=3.12 pd=16.78 as=0 ps=0 w=8 l=0.5
X163 gnd gnd gnd gnd sky130_fd_pr__nfet_01v8 ad=2.73 pd=14.78 as=0 ps=0 w=7 l=1
X164 output CSoutput vdd gnd sky130_fd_pr__nfet_01v8 ad=0.825 pd=5.33 as=0.825 ps=5.33 w=5 l=1
X165 vdd CSoutput output gnd sky130_fd_pr__nfet_01v8 ad=0.825 pd=5.33 as=0.825 ps=5.33 w=5 l=1
X166 CSoutput a_n5644_8799# vdd vdd sky130_fd_pr__pfet_01v8 ad=1.32 pd=8.33 as=1.32 ps=8.33 w=8 l=0.5
X167 CSoutput commonsourceibias gnd gnd sky130_fd_pr__nfet_01v8 ad=1.155 pd=7.33 as=1.155 ps=7.33 w=7 l=1
X168 vdd a_n5644_8799# CSoutput vdd sky130_fd_pr__pfet_01v8 ad=3.12 pd=16.78 as=1.32 ps=8.33 w=8 l=0.5
X169 gnd commonsourceibias CSoutput gnd sky130_fd_pr__nfet_01v8 ad=1.155 pd=7.33 as=1.155 ps=7.33 w=7 l=1
X170 commonsourceibias commonsourceibias gnd gnd sky130_fd_pr__nfet_01v8 ad=1.155 pd=7.33 as=1.155 ps=7.33 w=7 l=1
X171 gnd commonsourceibias CSoutput gnd sky130_fd_pr__nfet_01v8 ad=1.155 pd=7.33 as=1.155 ps=7.33 w=7 l=1
X172 gnd commonsourceibias CSoutput gnd sky130_fd_pr__nfet_01v8 ad=1.155 pd=7.33 as=1.155 ps=7.33 w=7 l=1
X173 a_n3827_n3924# diffpairibias gnd gnd sky130_fd_pr__nfet_01v8 ad=2.73 pd=14.78 as=2.73 ps=14.78 w=7 l=1
X174 a_n3827_n3924# diffpairibias gnd gnd sky130_fd_pr__nfet_01v8 ad=2.73 pd=14.78 as=2.73 ps=14.78 w=7 l=1
X175 vdd a_n5644_8799# CSoutput vdd sky130_fd_pr__pfet_01v8 ad=1.32 pd=8.33 as=1.32 ps=8.33 w=8 l=0.5
X176 CSoutput a_n1986_8322# sky130_fd_pr__cap_mim_m3_1 l=12 w=12
X177 CSoutput a_n5644_8799# vdd vdd sky130_fd_pr__pfet_01v8 ad=1.32 pd=8.33 as=1.32 ps=8.33 w=8 l=0.5
X178 CSoutput a_n1986_8322# sky130_fd_pr__cap_mim_m3_1 l=12 w=12
X179 CSoutput commonsourceibias gnd gnd sky130_fd_pr__nfet_01v8 ad=1.155 pd=7.33 as=1.155 ps=7.33 w=7 l=1
X180 output CSoutput vdd gnd sky130_fd_pr__nfet_01v8 ad=0.825 pd=5.33 as=0.825 ps=5.33 w=5 l=1
X181 gnd gnd gnd gnd sky130_fd_pr__nfet_01v8 ad=2.73 pd=14.78 as=0 ps=0 w=7 l=1
X182 gnd commonsourceibias CSoutput gnd sky130_fd_pr__nfet_01v8 ad=1.155 pd=7.33 as=1.155 ps=7.33 w=7 l=1
X183 diffpairibias diffpairibias gnd gnd sky130_fd_pr__nfet_01v8 ad=2.73 pd=14.78 as=2.73 ps=14.78 w=7 l=1
X184 gnd gnd gnd gnd sky130_fd_pr__nfet_01v8 ad=2.73 pd=14.78 as=0 ps=0 w=7 l=1
X185 a_n1808_13878# a_n1986_13878# vdd vdd sky130_fd_pr__pfet_01v8 ad=1.485 pd=9.33 as=1.485 ps=9.33 w=9 l=0.5
X186 vdd a_n1986_13878# a_n1808_13878# vdd sky130_fd_pr__pfet_01v8 ad=1.485 pd=9.33 as=1.485 ps=9.33 w=9 l=0.5
X187 vdd vdd vdd vdd sky130_fd_pr__pfet_01v8 ad=3.12 pd=16.78 as=0 ps=0 w=8 l=0.5
X188 gnd commonsourceibias CSoutput gnd sky130_fd_pr__nfet_01v8 ad=1.155 pd=7.33 as=1.155 ps=7.33 w=7 l=1
X189 gnd commonsourceibias CSoutput gnd sky130_fd_pr__nfet_01v8 ad=1.155 pd=7.33 as=1.155 ps=7.33 w=7 l=1
X190 CSoutput commonsourceibias gnd gnd sky130_fd_pr__nfet_01v8 ad=1.155 pd=7.33 as=2.73 ps=14.78 w=7 l=1
X191 gnd gnd gnd gnd sky130_fd_pr__nfet_01v8 ad=2.73 pd=14.78 as=0 ps=0 w=7 l=0.7
X192 gnd gnd plus gnd sky130_fd_pr__nfet_01v8 ad=0.165 pd=1.33 as=0.165 ps=1.33 w=1 l=0.5
X193 output CSoutput vdd gnd sky130_fd_pr__nfet_01v8 ad=0.825 pd=5.33 as=0.825 ps=5.33 w=5 l=1
X194 vdd vdd vdd vdd sky130_fd_pr__pfet_01v8 ad=3.12 pd=16.78 as=0 ps=0 w=8 l=0.5
X195 outputibias outputibias gnd gnd sky130_fd_pr__nfet_01v8 ad=2.34 pd=12.78 as=2.34 ps=12.78 w=6 l=2
X196 diffpairibias diffpairibias gnd gnd sky130_fd_pr__nfet_01v8 ad=2.73 pd=14.78 as=2.73 ps=14.78 w=7 l=1
X197 gnd commonsourceibias CSoutput gnd sky130_fd_pr__nfet_01v8 ad=1.155 pd=7.33 as=1.155 ps=7.33 w=7 l=1
X198 a_n3827_n3924# minus a_n1986_13878# gnd sky130_fd_pr__nfet_01v8 ad=1.155 pd=7.33 as=1.155 ps=7.33 w=7 l=0.7
X199 CSoutput a_n5644_8799# vdd vdd sky130_fd_pr__pfet_01v8 ad=1.32 pd=8.33 as=1.32 ps=8.33 w=8 l=0.5
X200 gnd commonsourceibias CSoutput gnd sky130_fd_pr__nfet_01v8 ad=1.155 pd=7.33 as=1.155 ps=7.33 w=7 l=1
X201 vdd a_n5644_8799# CSoutput vdd sky130_fd_pr__pfet_01v8 ad=3.12 pd=16.78 as=1.32 ps=8.33 w=8 l=0.5
X202 commonsourceibias commonsourceibias gnd gnd sky130_fd_pr__nfet_01v8 ad=1.155 pd=7.33 as=1.155 ps=7.33 w=7 l=1
X203 a_n1986_8322# a_n1986_13878# a_n5644_8799# vdd sky130_fd_pr__pfet_01v8 ad=1.485 pd=9.33 as=1.485 ps=9.33 w=9 l=0.5
X204 diffpairibias diffpairibias gnd gnd sky130_fd_pr__nfet_01v8 ad=2.73 pd=14.78 as=2.73 ps=14.78 w=7 l=1
X205 a_n1986_13878# minus a_n3827_n3924# gnd sky130_fd_pr__nfet_01v8 ad=1.155 pd=7.33 as=1.155 ps=7.33 w=7 l=0.7
X206 CSoutput a_n5644_8799# vdd vdd sky130_fd_pr__pfet_01v8 ad=1.32 pd=8.33 as=1.32 ps=8.33 w=8 l=0.5
X207 a_n1986_13878# minus a_n3827_n3924# gnd sky130_fd_pr__nfet_01v8 ad=1.155 pd=7.33 as=1.155 ps=7.33 w=7 l=0.7
X208 vdd a_n5644_8799# CSoutput vdd sky130_fd_pr__pfet_01v8 ad=1.32 pd=8.33 as=1.32 ps=8.33 w=8 l=0.5
X209 vdd a_n1986_13878# a_n1986_8322# vdd sky130_fd_pr__pfet_01v8 ad=1.485 pd=9.33 as=3.51 ps=18.78 w=9 l=0.5
X210 vdd a_n5644_8799# CSoutput vdd sky130_fd_pr__pfet_01v8 ad=1.32 pd=8.33 as=1.32 ps=8.33 w=8 l=0.5
X211 CSoutput commonsourceibias gnd gnd sky130_fd_pr__nfet_01v8 ad=1.155 pd=7.33 as=1.155 ps=7.33 w=7 l=1
X212 a_n5644_8799# plus a_n3827_n3924# gnd sky130_fd_pr__nfet_01v8 ad=1.155 pd=7.33 as=1.155 ps=7.33 w=7 l=0.7
X213 gnd gnd gnd gnd sky130_fd_pr__nfet_01v8 ad=2.73 pd=14.78 as=0 ps=0 w=7 l=1
X214 commonsourceibias commonsourceibias gnd gnd sky130_fd_pr__nfet_01v8 ad=1.155 pd=7.33 as=2.73 ps=14.78 w=7 l=1
X215 commonsourceibias commonsourceibias gnd gnd sky130_fd_pr__nfet_01v8 ad=1.155 pd=7.33 as=1.155 ps=7.33 w=7 l=1
X216 a_n3827_n3924# minus a_n1986_13878# gnd sky130_fd_pr__nfet_01v8 ad=1.155 pd=7.33 as=1.155 ps=7.33 w=7 l=0.7
X217 gnd gnd gnd gnd sky130_fd_pr__nfet_01v8 ad=2.73 pd=14.78 as=0 ps=0 w=7 l=1
X218 gnd gnd gnd gnd sky130_fd_pr__nfet_01v8 ad=2.73 pd=14.78 as=0 ps=0 w=7 l=1
X219 a_n1808_13878# a_n1986_13878# vdd vdd sky130_fd_pr__pfet_01v8 ad=3.51 pd=18.78 as=1.485 ps=9.33 w=9 l=0.5
X220 vdd CSoutput output gnd sky130_fd_pr__nfet_01v8 ad=0.825 pd=5.33 as=0.825 ps=5.33 w=5 l=1
X221 CSoutput commonsourceibias gnd gnd sky130_fd_pr__nfet_01v8 ad=1.155 pd=7.33 as=1.155 ps=7.33 w=7 l=1
X222 gnd commonsourceibias CSoutput gnd sky130_fd_pr__nfet_01v8 ad=1.155 pd=7.33 as=1.155 ps=7.33 w=7 l=1
X223 CSoutput a_n5644_8799# vdd vdd sky130_fd_pr__pfet_01v8 ad=1.32 pd=8.33 as=1.32 ps=8.33 w=8 l=0.5
X224 CSoutput a_n5644_8799# vdd vdd sky130_fd_pr__pfet_01v8 ad=1.32 pd=8.33 as=3.12 ps=16.78 w=8 l=0.5
X225 gnd commonsourceibias commonsourceibias gnd sky130_fd_pr__nfet_01v8 ad=2.73 pd=14.78 as=1.155 ps=7.33 w=7 l=1
X226 gnd commonsourceibias CSoutput gnd sky130_fd_pr__nfet_01v8 ad=1.155 pd=7.33 as=1.155 ps=7.33 w=7 l=1
X227 CSoutput commonsourceibias gnd gnd sky130_fd_pr__nfet_01v8 ad=1.155 pd=7.33 as=1.155 ps=7.33 w=7 l=1
X228 gnd gnd gnd gnd sky130_fd_pr__nfet_01v8 ad=2.73 pd=14.78 as=0 ps=0 w=7 l=1
X229 CSoutput commonsourceibias gnd gnd sky130_fd_pr__nfet_01v8 ad=1.155 pd=7.33 as=1.155 ps=7.33 w=7 l=1
X230 gnd commonsourceibias CSoutput gnd sky130_fd_pr__nfet_01v8 ad=1.155 pd=7.33 as=1.155 ps=7.33 w=7 l=1
X231 CSoutput commonsourceibias gnd gnd sky130_fd_pr__nfet_01v8 ad=1.155 pd=7.33 as=1.155 ps=7.33 w=7 l=1
X232 gnd gnd gnd gnd sky130_fd_pr__nfet_01v8 ad=2.73 pd=14.78 as=0 ps=0 w=7 l=1
X233 vdd vdd vdd vdd sky130_fd_pr__pfet_01v8 ad=3.12 pd=16.78 as=0 ps=0 w=8 l=0.5
X234 a_n3827_n3924# diffpairibias gnd gnd sky130_fd_pr__nfet_01v8 ad=2.73 pd=14.78 as=2.73 ps=14.78 w=7 l=1
X235 gnd commonsourceibias CSoutput gnd sky130_fd_pr__nfet_01v8 ad=1.155 pd=7.33 as=1.155 ps=7.33 w=7 l=1
X236 commonsourceibias commonsourceibias gnd gnd sky130_fd_pr__nfet_01v8 ad=1.155 pd=7.33 as=1.155 ps=7.33 w=7 l=1
X237 vdd CSoutput output gnd sky130_fd_pr__nfet_01v8 ad=0.825 pd=5.33 as=0.825 ps=5.33 w=5 l=1
X238 vdd a_n1986_13878# a_n1986_8322# vdd sky130_fd_pr__pfet_01v8 ad=1.485 pd=9.33 as=1.485 ps=9.33 w=9 l=0.5
X239 a_n1986_8322# a_n1986_13878# a_n5644_8799# vdd sky130_fd_pr__pfet_01v8 ad=1.485 pd=9.33 as=1.485 ps=9.33 w=9 l=0.5
X240 CSoutput a_n5644_8799# vdd vdd sky130_fd_pr__pfet_01v8 ad=1.32 pd=8.33 as=1.32 ps=8.33 w=8 l=0.5
X241 vdd a_n5644_8799# CSoutput vdd sky130_fd_pr__pfet_01v8 ad=1.32 pd=8.33 as=1.32 ps=8.33 w=8 l=0.5
X242 CSoutput commonsourceibias gnd gnd sky130_fd_pr__nfet_01v8 ad=1.155 pd=7.33 as=1.155 ps=7.33 w=7 l=1
X243 gnd commonsourceibias CSoutput gnd sky130_fd_pr__nfet_01v8 ad=1.155 pd=7.33 as=1.155 ps=7.33 w=7 l=1
X244 a_n5644_8799# plus a_n3827_n3924# gnd sky130_fd_pr__nfet_01v8 ad=1.155 pd=7.33 as=1.155 ps=7.33 w=7 l=0.7
X245 CSoutput commonsourceibias gnd gnd sky130_fd_pr__nfet_01v8 ad=1.155 pd=7.33 as=1.155 ps=7.33 w=7 l=1
X246 gnd gnd plus gnd sky130_fd_pr__nfet_01v8 ad=0.39 pd=2.78 as=0.165 ps=1.33 w=1 l=0.5
X247 outputibias outputibias gnd gnd sky130_fd_pr__nfet_01v8 ad=2.34 pd=12.78 as=2.34 ps=12.78 w=6 l=2
X248 gnd commonsourceibias CSoutput gnd sky130_fd_pr__nfet_01v8 ad=1.155 pd=7.33 as=1.155 ps=7.33 w=7 l=1
X249 gnd commonsourceibias CSoutput gnd sky130_fd_pr__nfet_01v8 ad=2.73 pd=14.78 as=1.155 ps=7.33 w=7 l=1
X250 CSoutput commonsourceibias gnd gnd sky130_fd_pr__nfet_01v8 ad=1.155 pd=7.33 as=1.155 ps=7.33 w=7 l=1
X251 gnd gnd gnd gnd sky130_fd_pr__nfet_01v8 ad=1.95 pd=10.78 as=0 ps=0 w=5 l=1
X252 commonsourceibias commonsourceibias gnd gnd sky130_fd_pr__nfet_01v8 ad=1.155 pd=7.33 as=1.155 ps=7.33 w=7 l=1
X253 vdd vdd vdd vdd sky130_fd_pr__pfet_01v8 ad=3.51 pd=18.78 as=0 ps=0 w=9 l=0.5
X254 a_n3827_n3924# plus a_n5644_8799# gnd sky130_fd_pr__nfet_01v8 ad=2.73 pd=14.78 as=1.155 ps=7.33 w=7 l=0.7
X255 vdd vdd vdd vdd sky130_fd_pr__pfet_01v8 ad=3.12 pd=16.78 as=0 ps=0 w=8 l=0.5
X256 a_n1808_13878# a_n1986_13878# a_n1986_13878# vdd sky130_fd_pr__pfet_01v8 ad=1.485 pd=9.33 as=1.485 ps=9.33 w=9 l=0.5
X257 CSoutput commonsourceibias gnd gnd sky130_fd_pr__nfet_01v8 ad=1.155 pd=7.33 as=1.155 ps=7.33 w=7 l=1
X258 a_n1986_8322# a_n1986_13878# a_n5644_8799# vdd sky130_fd_pr__pfet_01v8 ad=1.485 pd=9.33 as=1.485 ps=9.33 w=9 l=0.5
X259 output outputibias gnd gnd sky130_fd_pr__nfet_01v8 ad=2.34 pd=12.78 as=2.34 ps=12.78 w=6 l=2
X260 diffpairibias diffpairibias gnd gnd sky130_fd_pr__nfet_01v8 ad=2.73 pd=14.78 as=2.73 ps=14.78 w=7 l=1
X261 gnd commonsourceibias CSoutput gnd sky130_fd_pr__nfet_01v8 ad=1.155 pd=7.33 as=1.155 ps=7.33 w=7 l=1
X262 CSoutput commonsourceibias gnd gnd sky130_fd_pr__nfet_01v8 ad=1.155 pd=7.33 as=1.155 ps=7.33 w=7 l=1
X263 gnd commonsourceibias commonsourceibias gnd sky130_fd_pr__nfet_01v8 ad=1.155 pd=7.33 as=1.155 ps=7.33 w=7 l=1
X264 gnd gnd gnd gnd sky130_fd_pr__nfet_01v8 ad=2.73 pd=14.78 as=0 ps=0 w=7 l=1
X265 outputibias outputibias gnd gnd sky130_fd_pr__nfet_01v8 ad=2.34 pd=12.78 as=2.34 ps=12.78 w=6 l=2
X266 commonsourceibias commonsourceibias gnd gnd sky130_fd_pr__nfet_01v8 ad=1.155 pd=7.33 as=1.155 ps=7.33 w=7 l=1
X267 gnd commonsourceibias CSoutput gnd sky130_fd_pr__nfet_01v8 ad=1.155 pd=7.33 as=1.155 ps=7.33 w=7 l=1
X268 a_n3827_n3924# diffpairibias gnd gnd sky130_fd_pr__nfet_01v8 ad=2.73 pd=14.78 as=2.73 ps=14.78 w=7 l=1
X269 gnd commonsourceibias CSoutput gnd sky130_fd_pr__nfet_01v8 ad=1.155 pd=7.33 as=1.155 ps=7.33 w=7 l=1
X270 gnd commonsourceibias CSoutput gnd sky130_fd_pr__nfet_01v8 ad=1.155 pd=7.33 as=1.155 ps=7.33 w=7 l=1
X271 gnd commonsourceibias CSoutput gnd sky130_fd_pr__nfet_01v8 ad=2.73 pd=14.78 as=1.155 ps=7.33 w=7 l=1
X272 CSoutput a_n1986_8322# sky130_fd_pr__cap_mim_m3_1 l=12 w=12
X273 a_n1986_8322# a_n1986_13878# vdd vdd sky130_fd_pr__pfet_01v8 ad=3.51 pd=18.78 as=1.485 ps=9.33 w=9 l=0.5
X274 gnd commonsourceibias CSoutput gnd sky130_fd_pr__nfet_01v8 ad=1.155 pd=7.33 as=1.155 ps=7.33 w=7 l=1
X275 CSoutput commonsourceibias gnd gnd sky130_fd_pr__nfet_01v8 ad=1.155 pd=7.33 as=1.155 ps=7.33 w=7 l=1
X276 CSoutput a_n5644_8799# vdd vdd sky130_fd_pr__pfet_01v8 ad=1.32 pd=8.33 as=3.12 ps=16.78 w=8 l=0.5
X277 output CSoutput vdd gnd sky130_fd_pr__nfet_01v8 ad=0.825 pd=5.33 as=0.825 ps=5.33 w=5 l=1
X278 gnd commonsourceibias commonsourceibias gnd sky130_fd_pr__nfet_01v8 ad=1.155 pd=7.33 as=1.155 ps=7.33 w=7 l=1
X279 gnd gnd gnd gnd sky130_fd_pr__nfet_01v8 ad=2.73 pd=14.78 as=0 ps=0 w=7 l=0.7
X280 commonsourceibias commonsourceibias gnd gnd sky130_fd_pr__nfet_01v8 ad=1.155 pd=7.33 as=1.155 ps=7.33 w=7 l=1
X281 vdd a_n1986_13878# a_n1808_13878# vdd sky130_fd_pr__pfet_01v8 ad=1.485 pd=9.33 as=3.51 ps=18.78 w=9 l=0.5
X282 gnd commonsourceibias CSoutput gnd sky130_fd_pr__nfet_01v8 ad=1.155 pd=7.33 as=1.155 ps=7.33 w=7 l=1
X283 CSoutput commonsourceibias gnd gnd sky130_fd_pr__nfet_01v8 ad=1.155 pd=7.33 as=1.155 ps=7.33 w=7 l=1
X284 CSoutput commonsourceibias gnd gnd sky130_fd_pr__nfet_01v8 ad=1.155 pd=7.33 as=1.155 ps=7.33 w=7 l=1
X285 gnd commonsourceibias CSoutput gnd sky130_fd_pr__nfet_01v8 ad=1.155 pd=7.33 as=1.155 ps=7.33 w=7 l=1
X286 commonsourceibias commonsourceibias gnd gnd sky130_fd_pr__nfet_01v8 ad=1.155 pd=7.33 as=1.155 ps=7.33 w=7 l=1
X287 gnd commonsourceibias CSoutput gnd sky130_fd_pr__nfet_01v8 ad=1.155 pd=7.33 as=1.155 ps=7.33 w=7 l=1
X288 vdd vdd vdd vdd sky130_fd_pr__pfet_01v8 ad=3.12 pd=16.78 as=0 ps=0 w=8 l=0.5
X289 gnd commonsourceibias commonsourceibias gnd sky130_fd_pr__nfet_01v8 ad=1.155 pd=7.33 as=1.155 ps=7.33 w=7 l=1