* NGSPICE file created from opamp603.ext - technology: sky130A

.subckt opamp603 gnd CSoutput output vdd plus minus commonsourceibias outputibias
+ diffpairibias
X0 gnd commonsourceibias commonsourceibias gnd sky130_fd_pr__nfet_01v8 ad=1.155 pd=7.33 as=1.155 ps=7.33 w=7 l=1
X1 a_n2804_13878# a_n2982_13878# vdd vdd sky130_fd_pr__pfet_01v8 ad=1.485 pd=9.33 as=1.485 ps=9.33 w=9 l=0.5
X2 a_n2804_13878# a_n2982_13878# a_n2982_13878# vdd sky130_fd_pr__pfet_01v8 ad=1.485 pd=9.33 as=1.485 ps=9.33 w=9 l=0.5
X3 CSoutput commonsourceibias gnd gnd sky130_fd_pr__nfet_01v8 ad=1.155 pd=7.33 as=2.73 ps=14.78 w=7 l=1
X4 vdd a_n7636_8799# CSoutput vdd sky130_fd_pr__pfet_01v8 ad=1.32 pd=8.33 as=1.32 ps=8.33 w=8 l=0.5
X5 commonsourceibias commonsourceibias gnd gnd sky130_fd_pr__nfet_01v8 ad=1.155 pd=7.33 as=1.155 ps=7.33 w=7 l=1
X6 gnd commonsourceibias CSoutput gnd sky130_fd_pr__nfet_01v8 ad=1.155 pd=7.33 as=1.155 ps=7.33 w=7 l=1
X7 gnd commonsourceibias commonsourceibias gnd sky130_fd_pr__nfet_01v8 ad=1.155 pd=7.33 as=1.155 ps=7.33 w=7 l=1
X8 a_n3827_n3924# diffpairibias gnd gnd sky130_fd_pr__nfet_01v8 ad=2.73 pd=14.78 as=2.73 ps=14.78 w=7 l=1
X9 gnd commonsourceibias commonsourceibias gnd sky130_fd_pr__nfet_01v8 ad=1.155 pd=7.33 as=1.155 ps=7.33 w=7 l=1
X10 vdd vdd vdd vdd sky130_fd_pr__pfet_01v8 ad=3.12 pd=16.78 as=253.8 ps=1.42884k w=8 l=0.5
X11 a_n2982_8322# a_n2982_13878# a_n7636_8799# vdd sky130_fd_pr__pfet_01v8 ad=1.485 pd=9.33 as=1.485 ps=9.33 w=9 l=0.5
X12 commonsourceibias commonsourceibias gnd gnd sky130_fd_pr__nfet_01v8 ad=1.155 pd=7.33 as=1.155 ps=7.33 w=7 l=1
X13 gnd commonsourceibias CSoutput gnd sky130_fd_pr__nfet_01v8 ad=1.155 pd=7.33 as=1.155 ps=7.33 w=7 l=1
X14 gnd gnd plus gnd sky130_fd_pr__nfet_01v8 ad=0.39 pd=2.78 as=0.165 ps=1.33 w=1 l=0.5
X15 CSoutput a_n7636_8799# vdd vdd sky130_fd_pr__pfet_01v8 ad=1.32 pd=8.33 as=1.32 ps=8.33 w=8 l=0.5
X16 a_n7636_8799# plus a_n3827_n3924# gnd sky130_fd_pr__nfet_01v8 ad=1.155 pd=7.33 as=1.155 ps=7.33 w=7 l=0.5
X17 minus gnd gnd gnd sky130_fd_pr__nfet_01v8 ad=0.165 pd=1.33 as=0.165 ps=1.33 w=1 l=0.5
X18 vdd a_n7636_8799# CSoutput vdd sky130_fd_pr__pfet_01v8 ad=3.12 pd=16.78 as=1.32 ps=8.33 w=8 l=0.5
X19 gnd gnd gnd gnd sky130_fd_pr__nfet_01v8 ad=2.73 pd=14.78 as=385.74 ps=2.21604k w=7 l=1
X20 gnd gnd gnd gnd sky130_fd_pr__nfet_01v8 ad=2.34 pd=12.78 as=0 ps=0 w=6 l=2
X21 a_n7636_8799# a_n2982_13878# a_n2982_8322# vdd sky130_fd_pr__pfet_01v8 ad=1.485 pd=9.33 as=1.485 ps=9.33 w=9 l=0.5
X22 vdd a_n7636_8799# CSoutput vdd sky130_fd_pr__pfet_01v8 ad=1.32 pd=8.33 as=1.32 ps=8.33 w=8 l=0.5
X23 commonsourceibias commonsourceibias gnd gnd sky130_fd_pr__nfet_01v8 ad=1.155 pd=7.33 as=1.155 ps=7.33 w=7 l=1
X24 a_n7636_8799# a_n2982_13878# a_n2982_8322# vdd sky130_fd_pr__pfet_01v8 ad=1.485 pd=9.33 as=3.51 ps=18.78 w=9 l=0.5
X25 a_n7636_8799# plus a_n3827_n3924# gnd sky130_fd_pr__nfet_01v8 ad=1.155 pd=7.33 as=1.155 ps=7.33 w=7 l=0.5
X26 gnd commonsourceibias CSoutput gnd sky130_fd_pr__nfet_01v8 ad=1.155 pd=7.33 as=1.155 ps=7.33 w=7 l=1
X27 CSoutput commonsourceibias gnd gnd sky130_fd_pr__nfet_01v8 ad=1.155 pd=7.33 as=1.155 ps=7.33 w=7 l=1
X28 gnd commonsourceibias commonsourceibias gnd sky130_fd_pr__nfet_01v8 ad=1.155 pd=7.33 as=1.155 ps=7.33 w=7 l=1
X29 CSoutput a_n2982_8322# sky130_fd_pr__cap_mim_m3_1 l=12 w=12
X30 CSoutput commonsourceibias gnd gnd sky130_fd_pr__nfet_01v8 ad=1.155 pd=7.33 as=1.155 ps=7.33 w=7 l=1
X31 a_n3827_n3924# diffpairibias gnd gnd sky130_fd_pr__nfet_01v8 ad=2.73 pd=14.78 as=2.73 ps=14.78 w=7 l=1
X32 a_n3827_n3924# minus a_n2982_13878# gnd sky130_fd_pr__nfet_01v8 ad=1.155 pd=7.33 as=1.155 ps=7.33 w=7 l=0.5
X33 commonsourceibias commonsourceibias gnd gnd sky130_fd_pr__nfet_01v8 ad=1.155 pd=7.33 as=1.155 ps=7.33 w=7 l=1
X34 a_n3827_n3924# plus a_n7636_8799# gnd sky130_fd_pr__nfet_01v8 ad=1.155 pd=7.33 as=1.155 ps=7.33 w=7 l=0.5
X35 CSoutput commonsourceibias gnd gnd sky130_fd_pr__nfet_01v8 ad=1.155 pd=7.33 as=1.155 ps=7.33 w=7 l=1
X36 a_n2982_13878# minus a_n3827_n3924# gnd sky130_fd_pr__nfet_01v8 ad=1.155 pd=7.33 as=1.155 ps=7.33 w=7 l=0.5
X37 a_n3827_n3924# plus a_n7636_8799# gnd sky130_fd_pr__nfet_01v8 ad=1.155 pd=7.33 as=1.155 ps=7.33 w=7 l=0.5
X38 a_n3827_n3924# minus a_n2982_13878# gnd sky130_fd_pr__nfet_01v8 ad=1.155 pd=7.33 as=1.155 ps=7.33 w=7 l=0.5
X39 gnd commonsourceibias commonsourceibias gnd sky130_fd_pr__nfet_01v8 ad=1.155 pd=7.33 as=1.155 ps=7.33 w=7 l=1
X40 CSoutput commonsourceibias gnd gnd sky130_fd_pr__nfet_01v8 ad=1.155 pd=7.33 as=2.73 ps=14.78 w=7 l=1
X41 vdd vdd vdd vdd sky130_fd_pr__pfet_01v8 ad=3.12 pd=16.78 as=0 ps=0 w=8 l=0.5
X42 a_n2804_13878# a_n2982_13878# a_n2982_13878# vdd sky130_fd_pr__pfet_01v8 ad=1.485 pd=9.33 as=1.485 ps=9.33 w=9 l=0.5
X43 output outputibias gnd gnd sky130_fd_pr__nfet_01v8 ad=2.34 pd=12.78 as=2.34 ps=12.78 w=6 l=2
X44 a_n2982_13878# a_n2982_13878# a_n2804_13878# vdd sky130_fd_pr__pfet_01v8 ad=1.485 pd=9.33 as=1.485 ps=9.33 w=9 l=0.5
X45 CSoutput a_n2982_8322# sky130_fd_pr__cap_mim_m3_1 l=12 w=12
X46 CSoutput a_n7636_8799# vdd vdd sky130_fd_pr__pfet_01v8 ad=1.32 pd=8.33 as=1.32 ps=8.33 w=8 l=0.5
X47 a_n3827_n3924# minus a_n2982_13878# gnd sky130_fd_pr__nfet_01v8 ad=1.155 pd=7.33 as=1.155 ps=7.33 w=7 l=0.5
X48 vdd vdd vdd vdd sky130_fd_pr__pfet_01v8 ad=3.51 pd=18.78 as=0 ps=0 w=9 l=0.5
X49 vdd a_n7636_8799# CSoutput vdd sky130_fd_pr__pfet_01v8 ad=3.12 pd=16.78 as=1.32 ps=8.33 w=8 l=0.5
X50 vdd CSoutput output gnd sky130_fd_pr__nfet_01v8 ad=0.825 pd=5.33 as=0.825 ps=5.33 w=5 l=1
X51 diffpairibias diffpairibias gnd gnd sky130_fd_pr__nfet_01v8 ad=2.73 pd=14.78 as=2.73 ps=14.78 w=7 l=1
X52 CSoutput commonsourceibias gnd gnd sky130_fd_pr__nfet_01v8 ad=1.155 pd=7.33 as=1.155 ps=7.33 w=7 l=1
X53 a_n2982_13878# a_n2982_13878# a_n2804_13878# vdd sky130_fd_pr__pfet_01v8 ad=1.485 pd=9.33 as=1.485 ps=9.33 w=9 l=0.5
X54 CSoutput commonsourceibias gnd gnd sky130_fd_pr__nfet_01v8 ad=1.155 pd=7.33 as=1.155 ps=7.33 w=7 l=1
X55 gnd gnd gnd gnd sky130_fd_pr__nfet_01v8 ad=2.73 pd=14.78 as=0 ps=0 w=7 l=0.5
X56 CSoutput commonsourceibias gnd gnd sky130_fd_pr__nfet_01v8 ad=1.155 pd=7.33 as=1.155 ps=7.33 w=7 l=1
X57 a_n7636_8799# a_n2982_13878# a_n2982_8322# vdd sky130_fd_pr__pfet_01v8 ad=1.485 pd=9.33 as=1.485 ps=9.33 w=9 l=0.5
X58 CSoutput a_n7636_8799# vdd vdd sky130_fd_pr__pfet_01v8 ad=1.32 pd=8.33 as=1.32 ps=8.33 w=8 l=0.5
X59 commonsourceibias commonsourceibias gnd gnd sky130_fd_pr__nfet_01v8 ad=1.155 pd=7.33 as=2.73 ps=14.78 w=7 l=1
X60 a_n2982_13878# a_n2982_13878# a_n2804_13878# vdd sky130_fd_pr__pfet_01v8 ad=1.485 pd=9.33 as=1.485 ps=9.33 w=9 l=0.5
X61 gnd gnd gnd gnd sky130_fd_pr__nfet_01v8 ad=2.73 pd=14.78 as=0 ps=0 w=7 l=1
X62 gnd gnd plus gnd sky130_fd_pr__nfet_01v8 ad=0.165 pd=1.33 as=0.165 ps=1.33 w=1 l=0.5
X63 vdd a_n7636_8799# CSoutput vdd sky130_fd_pr__pfet_01v8 ad=1.32 pd=8.33 as=1.32 ps=8.33 w=8 l=0.5
X64 vdd a_n7636_8799# CSoutput vdd sky130_fd_pr__pfet_01v8 ad=1.32 pd=8.33 as=1.32 ps=8.33 w=8 l=0.5
X65 minus gnd gnd gnd sky130_fd_pr__nfet_01v8 ad=0.165 pd=1.33 as=0.165 ps=1.33 w=1 l=0.5
X66 a_n7636_8799# a_n2982_13878# a_n2982_8322# vdd sky130_fd_pr__pfet_01v8 ad=1.485 pd=9.33 as=1.485 ps=9.33 w=9 l=0.5
X67 diffpairibias diffpairibias gnd gnd sky130_fd_pr__nfet_01v8 ad=2.73 pd=14.78 as=2.73 ps=14.78 w=7 l=1
X68 CSoutput a_n7636_8799# vdd vdd sky130_fd_pr__pfet_01v8 ad=1.32 pd=8.33 as=1.32 ps=8.33 w=8 l=0.5
X69 gnd gnd gnd gnd sky130_fd_pr__nfet_01v8 ad=2.73 pd=14.78 as=0 ps=0 w=7 l=1
X70 a_n7636_8799# a_n2982_13878# a_n2982_8322# vdd sky130_fd_pr__pfet_01v8 ad=1.485 pd=9.33 as=1.485 ps=9.33 w=9 l=0.5
X71 a_n2982_8322# a_n2982_13878# a_n7636_8799# vdd sky130_fd_pr__pfet_01v8 ad=1.485 pd=9.33 as=1.485 ps=9.33 w=9 l=0.5
X72 CSoutput commonsourceibias gnd gnd sky130_fd_pr__nfet_01v8 ad=1.155 pd=7.33 as=1.155 ps=7.33 w=7 l=1
X73 CSoutput a_n7636_8799# vdd vdd sky130_fd_pr__pfet_01v8 ad=1.32 pd=8.33 as=3.12 ps=16.78 w=8 l=0.5
X74 gnd commonsourceibias CSoutput gnd sky130_fd_pr__nfet_01v8 ad=1.155 pd=7.33 as=1.155 ps=7.33 w=7 l=1
X75 gnd gnd gnd gnd sky130_fd_pr__nfet_01v8 ad=2.34 pd=12.78 as=0 ps=0 w=6 l=2
X76 CSoutput commonsourceibias gnd gnd sky130_fd_pr__nfet_01v8 ad=1.155 pd=7.33 as=1.155 ps=7.33 w=7 l=1
X77 a_n7636_8799# plus a_n3827_n3924# gnd sky130_fd_pr__nfet_01v8 ad=1.155 pd=7.33 as=1.155 ps=7.33 w=7 l=0.5
X78 gnd commonsourceibias CSoutput gnd sky130_fd_pr__nfet_01v8 ad=2.73 pd=14.78 as=1.155 ps=7.33 w=7 l=1
X79 gnd gnd gnd gnd sky130_fd_pr__nfet_01v8 ad=2.73 pd=14.78 as=0 ps=0 w=7 l=1
X80 a_n3827_n3924# diffpairibias gnd gnd sky130_fd_pr__nfet_01v8 ad=2.73 pd=14.78 as=2.73 ps=14.78 w=7 l=1
X81 vdd a_n7636_8799# CSoutput vdd sky130_fd_pr__pfet_01v8 ad=1.32 pd=8.33 as=1.32 ps=8.33 w=8 l=0.5
X82 a_n3827_n3924# minus a_n2982_13878# gnd sky130_fd_pr__nfet_01v8 ad=1.155 pd=7.33 as=1.155 ps=7.33 w=7 l=0.5
X83 CSoutput commonsourceibias gnd gnd sky130_fd_pr__nfet_01v8 ad=1.155 pd=7.33 as=1.155 ps=7.33 w=7 l=1
X84 a_n2982_13878# a_n2982_13878# a_n2804_13878# vdd sky130_fd_pr__pfet_01v8 ad=1.485 pd=9.33 as=1.485 ps=9.33 w=9 l=0.5
X85 a_n7636_8799# a_n2982_13878# a_n2982_8322# vdd sky130_fd_pr__pfet_01v8 ad=1.485 pd=9.33 as=1.485 ps=9.33 w=9 l=0.5
X86 a_n2982_13878# a_n2982_13878# a_n2804_13878# vdd sky130_fd_pr__pfet_01v8 ad=3.51 pd=18.78 as=1.485 ps=9.33 w=9 l=0.5
X87 a_n2982_13878# minus a_n3827_n3924# gnd sky130_fd_pr__nfet_01v8 ad=1.155 pd=7.33 as=1.155 ps=7.33 w=7 l=0.5
X88 a_n3827_n3924# plus a_n7636_8799# gnd sky130_fd_pr__nfet_01v8 ad=1.155 pd=7.33 as=1.155 ps=7.33 w=7 l=0.5
X89 outputibias outputibias gnd gnd sky130_fd_pr__nfet_01v8 ad=2.34 pd=12.78 as=2.34 ps=12.78 w=6 l=2
X90 commonsourceibias commonsourceibias gnd gnd sky130_fd_pr__nfet_01v8 ad=1.155 pd=7.33 as=1.155 ps=7.33 w=7 l=1
X91 gnd commonsourceibias CSoutput gnd sky130_fd_pr__nfet_01v8 ad=1.155 pd=7.33 as=1.155 ps=7.33 w=7 l=1
X92 gnd gnd gnd gnd sky130_fd_pr__nfet_01v8 ad=2.73 pd=14.78 as=0 ps=0 w=7 l=1
X93 CSoutput commonsourceibias gnd gnd sky130_fd_pr__nfet_01v8 ad=1.155 pd=7.33 as=1.155 ps=7.33 w=7 l=1
X94 gnd commonsourceibias commonsourceibias gnd sky130_fd_pr__nfet_01v8 ad=1.155 pd=7.33 as=1.155 ps=7.33 w=7 l=1
X95 CSoutput commonsourceibias gnd gnd sky130_fd_pr__nfet_01v8 ad=1.155 pd=7.33 as=1.155 ps=7.33 w=7 l=1
X96 diffpairibias diffpairibias gnd gnd sky130_fd_pr__nfet_01v8 ad=2.73 pd=14.78 as=2.73 ps=14.78 w=7 l=1
X97 a_n3827_n3924# minus a_n2982_13878# gnd sky130_fd_pr__nfet_01v8 ad=2.73 pd=14.78 as=1.155 ps=7.33 w=7 l=0.5
X98 vdd vdd vdd vdd sky130_fd_pr__pfet_01v8 ad=3.51 pd=18.78 as=0 ps=0 w=9 l=0.5
X99 CSoutput a_n7636_8799# vdd vdd sky130_fd_pr__pfet_01v8 ad=1.32 pd=8.33 as=1.32 ps=8.33 w=8 l=0.5
X100 vdd vdd vdd vdd sky130_fd_pr__pfet_01v8 ad=3.51 pd=18.78 as=0 ps=0 w=9 l=0.5
X101 gnd commonsourceibias CSoutput gnd sky130_fd_pr__nfet_01v8 ad=2.73 pd=14.78 as=1.155 ps=7.33 w=7 l=1
X102 a_n2804_13878# a_n2982_13878# a_n2982_13878# vdd sky130_fd_pr__pfet_01v8 ad=1.485 pd=9.33 as=3.51 ps=18.78 w=9 l=0.5
X103 vdd a_n2982_13878# a_n2982_8322# vdd sky130_fd_pr__pfet_01v8 ad=1.485 pd=9.33 as=1.485 ps=9.33 w=9 l=0.5
X104 gnd commonsourceibias commonsourceibias gnd sky130_fd_pr__nfet_01v8 ad=1.155 pd=7.33 as=1.155 ps=7.33 w=7 l=1
X105 a_n2982_13878# a_n2982_13878# a_n2804_13878# vdd sky130_fd_pr__pfet_01v8 ad=1.485 pd=9.33 as=1.485 ps=9.33 w=9 l=0.5
X106 CSoutput commonsourceibias gnd gnd sky130_fd_pr__nfet_01v8 ad=1.155 pd=7.33 as=1.155 ps=7.33 w=7 l=1
X107 output CSoutput vdd gnd sky130_fd_pr__nfet_01v8 ad=0.825 pd=5.33 as=0.825 ps=5.33 w=5 l=1
X108 CSoutput commonsourceibias gnd gnd sky130_fd_pr__nfet_01v8 ad=1.155 pd=7.33 as=1.155 ps=7.33 w=7 l=1
X109 a_n2982_8322# a_n2982_13878# vdd vdd sky130_fd_pr__pfet_01v8 ad=1.485 pd=9.33 as=1.485 ps=9.33 w=9 l=0.5
X110 a_n3827_n3924# diffpairibias gnd gnd sky130_fd_pr__nfet_01v8 ad=2.73 pd=14.78 as=2.73 ps=14.78 w=7 l=1
X111 CSoutput a_n7636_8799# vdd vdd sky130_fd_pr__pfet_01v8 ad=1.32 pd=8.33 as=3.12 ps=16.78 w=8 l=0.5
X112 gnd commonsourceibias CSoutput gnd sky130_fd_pr__nfet_01v8 ad=1.155 pd=7.33 as=1.155 ps=7.33 w=7 l=1
X113 a_n2982_13878# minus a_n3827_n3924# gnd sky130_fd_pr__nfet_01v8 ad=1.155 pd=7.33 as=1.155 ps=7.33 w=7 l=0.5
X114 commonsourceibias commonsourceibias gnd gnd sky130_fd_pr__nfet_01v8 ad=1.155 pd=7.33 as=2.73 ps=14.78 w=7 l=1
X115 a_n3827_n3924# plus a_n7636_8799# gnd sky130_fd_pr__nfet_01v8 ad=1.155 pd=7.33 as=1.155 ps=7.33 w=7 l=0.5
X116 vdd a_n2982_13878# a_n2804_13878# vdd sky130_fd_pr__pfet_01v8 ad=1.485 pd=9.33 as=1.485 ps=9.33 w=9 l=0.5
X117 gnd commonsourceibias CSoutput gnd sky130_fd_pr__nfet_01v8 ad=1.155 pd=7.33 as=1.155 ps=7.33 w=7 l=1
X118 gnd commonsourceibias commonsourceibias gnd sky130_fd_pr__nfet_01v8 ad=1.155 pd=7.33 as=1.155 ps=7.33 w=7 l=1
X119 output CSoutput vdd gnd sky130_fd_pr__nfet_01v8 ad=0.825 pd=5.33 as=0.825 ps=5.33 w=5 l=1
X120 vdd vdd vdd vdd sky130_fd_pr__pfet_01v8 ad=3.51 pd=18.78 as=0 ps=0 w=9 l=0.5
X121 CSoutput commonsourceibias gnd gnd sky130_fd_pr__nfet_01v8 ad=1.155 pd=7.33 as=1.155 ps=7.33 w=7 l=1
X122 gnd commonsourceibias CSoutput gnd sky130_fd_pr__nfet_01v8 ad=1.155 pd=7.33 as=1.155 ps=7.33 w=7 l=1
X123 a_n2804_13878# a_n2982_13878# a_n2982_13878# vdd sky130_fd_pr__pfet_01v8 ad=1.485 pd=9.33 as=1.485 ps=9.33 w=9 l=0.5
X124 a_n2982_8322# a_n2982_13878# a_n7636_8799# vdd sky130_fd_pr__pfet_01v8 ad=1.485 pd=9.33 as=1.485 ps=9.33 w=9 l=0.5
X125 CSoutput commonsourceibias gnd gnd sky130_fd_pr__nfet_01v8 ad=1.155 pd=7.33 as=1.155 ps=7.33 w=7 l=1
X126 a_n7636_8799# plus a_n3827_n3924# gnd sky130_fd_pr__nfet_01v8 ad=1.155 pd=7.33 as=2.73 ps=14.78 w=7 l=0.5
X127 vdd vdd vdd vdd sky130_fd_pr__pfet_01v8 ad=3.12 pd=16.78 as=0 ps=0 w=8 l=0.5
X128 commonsourceibias commonsourceibias gnd gnd sky130_fd_pr__nfet_01v8 ad=1.155 pd=7.33 as=1.155 ps=7.33 w=7 l=1
X129 vdd vdd vdd vdd sky130_fd_pr__pfet_01v8 ad=3.51 pd=18.78 as=0 ps=0 w=9 l=0.5
X130 a_n2982_8322# a_n2982_13878# vdd vdd sky130_fd_pr__pfet_01v8 ad=3.51 pd=18.78 as=1.485 ps=9.33 w=9 l=0.5
X131 gnd commonsourceibias CSoutput gnd sky130_fd_pr__nfet_01v8 ad=1.155 pd=7.33 as=1.155 ps=7.33 w=7 l=1
X132 a_n2982_13878# minus a_n3827_n3924# gnd sky130_fd_pr__nfet_01v8 ad=1.155 pd=7.33 as=1.155 ps=7.33 w=7 l=0.5
X133 a_n7636_8799# a_n2982_13878# a_n2982_8322# vdd sky130_fd_pr__pfet_01v8 ad=1.485 pd=9.33 as=1.485 ps=9.33 w=9 l=0.5
X134 gnd gnd gnd gnd sky130_fd_pr__nfet_01v8 ad=2.73 pd=14.78 as=0 ps=0 w=7 l=1
X135 CSoutput a_n7636_8799# vdd vdd sky130_fd_pr__pfet_01v8 ad=1.32 pd=8.33 as=1.32 ps=8.33 w=8 l=0.5
X136 diffpairibias diffpairibias gnd gnd sky130_fd_pr__nfet_01v8 ad=2.73 pd=14.78 as=2.73 ps=14.78 w=7 l=1
X137 vdd a_n7636_8799# CSoutput vdd sky130_fd_pr__pfet_01v8 ad=1.32 pd=8.33 as=1.32 ps=8.33 w=8 l=0.5
X138 a_n2982_13878# a_n2982_13878# a_n2804_13878# vdd sky130_fd_pr__pfet_01v8 ad=1.485 pd=9.33 as=1.485 ps=9.33 w=9 l=0.5
X139 a_n7636_8799# a_n2982_13878# a_n2982_8322# vdd sky130_fd_pr__pfet_01v8 ad=1.485 pd=9.33 as=1.485 ps=9.33 w=9 l=0.5
X140 gnd commonsourceibias commonsourceibias gnd sky130_fd_pr__nfet_01v8 ad=1.155 pd=7.33 as=1.155 ps=7.33 w=7 l=1
X141 a_n2804_13878# a_n2982_13878# a_n2982_13878# vdd sky130_fd_pr__pfet_01v8 ad=1.485 pd=9.33 as=1.485 ps=9.33 w=9 l=0.5
X142 plus gnd gnd gnd sky130_fd_pr__nfet_01v8 ad=0.165 pd=1.33 as=0.165 ps=1.33 w=1 l=0.5
X143 gnd commonsourceibias CSoutput gnd sky130_fd_pr__nfet_01v8 ad=1.155 pd=7.33 as=1.155 ps=7.33 w=7 l=1
X144 output CSoutput vdd gnd sky130_fd_pr__nfet_01v8 ad=0.825 pd=5.33 as=0.825 ps=5.33 w=5 l=1
X145 gnd commonsourceibias CSoutput gnd sky130_fd_pr__nfet_01v8 ad=1.155 pd=7.33 as=1.155 ps=7.33 w=7 l=1
X146 gnd gnd minus gnd sky130_fd_pr__nfet_01v8 ad=0.39 pd=2.78 as=0.165 ps=1.33 w=1 l=0.5
X147 vdd vdd vdd vdd sky130_fd_pr__pfet_01v8 ad=3.51 pd=18.78 as=0 ps=0 w=9 l=0.5
X148 CSoutput a_n7636_8799# vdd vdd sky130_fd_pr__pfet_01v8 ad=1.32 pd=8.33 as=1.32 ps=8.33 w=8 l=0.5
X149 a_n2982_13878# minus a_n3827_n3924# gnd sky130_fd_pr__nfet_01v8 ad=1.155 pd=7.33 as=1.155 ps=7.33 w=7 l=0.5
X150 vdd a_n2982_13878# a_n2982_8322# vdd sky130_fd_pr__pfet_01v8 ad=1.485 pd=9.33 as=3.51 ps=18.78 w=9 l=0.5
X151 a_n2804_13878# a_n2982_13878# a_n2982_13878# vdd sky130_fd_pr__pfet_01v8 ad=1.485 pd=9.33 as=1.485 ps=9.33 w=9 l=0.5
X152 gnd gnd gnd gnd sky130_fd_pr__nfet_01v8 ad=2.73 pd=14.78 as=0 ps=0 w=7 l=1
X153 vdd a_n7636_8799# CSoutput vdd sky130_fd_pr__pfet_01v8 ad=1.32 pd=8.33 as=1.32 ps=8.33 w=8 l=0.5
X154 output outputibias gnd gnd sky130_fd_pr__nfet_01v8 ad=2.34 pd=12.78 as=2.34 ps=12.78 w=6 l=2
X155 a_n2982_13878# a_n2982_13878# a_n2804_13878# vdd sky130_fd_pr__pfet_01v8 ad=1.485 pd=9.33 as=1.485 ps=9.33 w=9 l=0.5
X156 gnd gnd gnd gnd sky130_fd_pr__nfet_01v8 ad=1.95 pd=10.78 as=0 ps=0 w=5 l=1
X157 gnd gnd gnd gnd sky130_fd_pr__nfet_01v8 ad=2.73 pd=14.78 as=0 ps=0 w=7 l=1
X158 outputibias outputibias gnd gnd sky130_fd_pr__nfet_01v8 ad=2.34 pd=12.78 as=2.34 ps=12.78 w=6 l=2
X159 vdd CSoutput output gnd sky130_fd_pr__nfet_01v8 ad=0.825 pd=5.33 as=0.825 ps=5.33 w=5 l=1
X160 CSoutput commonsourceibias gnd gnd sky130_fd_pr__nfet_01v8 ad=1.155 pd=7.33 as=1.155 ps=7.33 w=7 l=1
X161 gnd commonsourceibias CSoutput gnd sky130_fd_pr__nfet_01v8 ad=1.155 pd=7.33 as=1.155 ps=7.33 w=7 l=1
X162 gnd commonsourceibias CSoutput gnd sky130_fd_pr__nfet_01v8 ad=1.155 pd=7.33 as=1.155 ps=7.33 w=7 l=1
X163 vdd a_n7636_8799# CSoutput vdd sky130_fd_pr__pfet_01v8 ad=1.32 pd=8.33 as=1.32 ps=8.33 w=8 l=0.5
X164 a_n3827_n3924# diffpairibias gnd gnd sky130_fd_pr__nfet_01v8 ad=2.73 pd=14.78 as=2.73 ps=14.78 w=7 l=1
X165 a_n3827_n3924# diffpairibias gnd gnd sky130_fd_pr__nfet_01v8 ad=2.73 pd=14.78 as=2.73 ps=14.78 w=7 l=1
X166 outputibias outputibias gnd gnd sky130_fd_pr__nfet_01v8 ad=2.34 pd=12.78 as=2.34 ps=12.78 w=6 l=2
X167 a_n2982_13878# minus a_n3827_n3924# gnd sky130_fd_pr__nfet_01v8 ad=1.155 pd=7.33 as=1.155 ps=7.33 w=7 l=0.5
X168 vdd a_n7636_8799# CSoutput vdd sky130_fd_pr__pfet_01v8 ad=1.32 pd=8.33 as=1.32 ps=8.33 w=8 l=0.5
X169 gnd gnd gnd gnd sky130_fd_pr__nfet_01v8 ad=2.73 pd=14.78 as=0 ps=0 w=7 l=1
X170 gnd gnd minus gnd sky130_fd_pr__nfet_01v8 ad=0.165 pd=1.33 as=0.39 ps=2.78 w=1 l=0.5
X171 vdd vdd vdd vdd sky130_fd_pr__pfet_01v8 ad=3.12 pd=16.78 as=0 ps=0 w=8 l=0.5
X172 a_n2804_13878# a_n2982_13878# a_n2982_13878# vdd sky130_fd_pr__pfet_01v8 ad=1.485 pd=9.33 as=1.485 ps=9.33 w=9 l=0.5
X173 gnd gnd gnd gnd sky130_fd_pr__nfet_01v8 ad=2.73 pd=14.78 as=0 ps=0 w=7 l=1
X174 a_n2982_8322# a_n2982_13878# a_n7636_8799# vdd sky130_fd_pr__pfet_01v8 ad=1.485 pd=9.33 as=1.485 ps=9.33 w=9 l=0.5
X175 gnd gnd gnd gnd sky130_fd_pr__nfet_01v8 ad=2.73 pd=14.78 as=0 ps=0 w=7 l=0.5
X176 CSoutput a_n7636_8799# vdd vdd sky130_fd_pr__pfet_01v8 ad=1.32 pd=8.33 as=1.32 ps=8.33 w=8 l=0.5
X177 vdd CSoutput output gnd sky130_fd_pr__nfet_01v8 ad=0.825 pd=5.33 as=0.825 ps=5.33 w=5 l=1
X178 a_n2982_13878# minus a_n3827_n3924# gnd sky130_fd_pr__nfet_01v8 ad=1.155 pd=7.33 as=1.155 ps=7.33 w=7 l=0.5
X179 CSoutput commonsourceibias gnd gnd sky130_fd_pr__nfet_01v8 ad=1.155 pd=7.33 as=1.155 ps=7.33 w=7 l=1
X180 output CSoutput vdd gnd sky130_fd_pr__nfet_01v8 ad=0.825 pd=5.33 as=0.825 ps=5.33 w=5 l=1
X181 gnd gnd gnd gnd sky130_fd_pr__nfet_01v8 ad=2.73 pd=14.78 as=0 ps=0 w=7 l=1
X182 gnd commonsourceibias CSoutput gnd sky130_fd_pr__nfet_01v8 ad=1.155 pd=7.33 as=1.155 ps=7.33 w=7 l=1
X183 diffpairibias diffpairibias gnd gnd sky130_fd_pr__nfet_01v8 ad=2.73 pd=14.78 as=2.73 ps=14.78 w=7 l=1
X184 a_n2804_13878# a_n2982_13878# vdd vdd sky130_fd_pr__pfet_01v8 ad=1.485 pd=9.33 as=1.485 ps=9.33 w=9 l=0.5
X185 vdd a_n2982_13878# a_n2804_13878# vdd sky130_fd_pr__pfet_01v8 ad=1.485 pd=9.33 as=1.485 ps=9.33 w=9 l=0.5
X186 vdd vdd vdd vdd sky130_fd_pr__pfet_01v8 ad=3.12 pd=16.78 as=0 ps=0 w=8 l=0.5
X187 CSoutput a_n7636_8799# vdd vdd sky130_fd_pr__pfet_01v8 ad=1.32 pd=8.33 as=1.32 ps=8.33 w=8 l=0.5
X188 gnd commonsourceibias CSoutput gnd sky130_fd_pr__nfet_01v8 ad=1.155 pd=7.33 as=1.155 ps=7.33 w=7 l=1
X189 a_n3827_n3924# plus a_n7636_8799# gnd sky130_fd_pr__nfet_01v8 ad=1.155 pd=7.33 as=1.155 ps=7.33 w=7 l=0.5
X190 CSoutput commonsourceibias gnd gnd sky130_fd_pr__nfet_01v8 ad=1.155 pd=7.33 as=2.73 ps=14.78 w=7 l=1
X191 vdd a_n7636_8799# CSoutput vdd sky130_fd_pr__pfet_01v8 ad=1.32 pd=8.33 as=1.32 ps=8.33 w=8 l=0.5
X192 output CSoutput vdd gnd sky130_fd_pr__nfet_01v8 ad=0.825 pd=5.33 as=0.825 ps=5.33 w=5 l=1
X193 vdd vdd vdd vdd sky130_fd_pr__pfet_01v8 ad=3.12 pd=16.78 as=0 ps=0 w=8 l=0.5
X194 a_n3827_n3924# minus a_n2982_13878# gnd sky130_fd_pr__nfet_01v8 ad=1.155 pd=7.33 as=1.155 ps=7.33 w=7 l=0.5
X195 a_n2804_13878# a_n2982_13878# a_n2982_13878# vdd sky130_fd_pr__pfet_01v8 ad=1.485 pd=9.33 as=1.485 ps=9.33 w=9 l=0.5
X196 diffpairibias diffpairibias gnd gnd sky130_fd_pr__nfet_01v8 ad=2.73 pd=14.78 as=2.73 ps=14.78 w=7 l=1
X197 a_n3827_n3924# plus a_n7636_8799# gnd sky130_fd_pr__nfet_01v8 ad=1.155 pd=7.33 as=1.155 ps=7.33 w=7 l=0.5
X198 gnd commonsourceibias CSoutput gnd sky130_fd_pr__nfet_01v8 ad=1.155 pd=7.33 as=1.155 ps=7.33 w=7 l=1
X199 a_n3827_n3924# minus a_n2982_13878# gnd sky130_fd_pr__nfet_01v8 ad=2.73 pd=14.78 as=1.155 ps=7.33 w=7 l=0.5
X200 a_n7636_8799# plus a_n3827_n3924# gnd sky130_fd_pr__nfet_01v8 ad=1.155 pd=7.33 as=2.73 ps=14.78 w=7 l=0.5
X201 vdd a_n7636_8799# CSoutput vdd sky130_fd_pr__pfet_01v8 ad=1.32 pd=8.33 as=1.32 ps=8.33 w=8 l=0.5
X202 commonsourceibias commonsourceibias gnd gnd sky130_fd_pr__nfet_01v8 ad=1.155 pd=7.33 as=1.155 ps=7.33 w=7 l=1
X203 a_n2982_8322# a_n2982_13878# a_n7636_8799# vdd sky130_fd_pr__pfet_01v8 ad=1.485 pd=9.33 as=1.485 ps=9.33 w=9 l=0.5
X204 CSoutput a_n7636_8799# vdd vdd sky130_fd_pr__pfet_01v8 ad=1.32 pd=8.33 as=3.12 ps=16.78 w=8 l=0.5
X205 a_n2982_13878# a_n2982_13878# a_n2804_13878# vdd sky130_fd_pr__pfet_01v8 ad=1.485 pd=9.33 as=1.485 ps=9.33 w=9 l=0.5
X206 outputibias outputibias gnd gnd sky130_fd_pr__nfet_01v8 ad=2.34 pd=12.78 as=2.34 ps=12.78 w=6 l=2
X207 diffpairibias diffpairibias gnd gnd sky130_fd_pr__nfet_01v8 ad=2.73 pd=14.78 as=2.73 ps=14.78 w=7 l=1
X208 vdd a_n7636_8799# CSoutput vdd sky130_fd_pr__pfet_01v8 ad=3.12 pd=16.78 as=1.32 ps=8.33 w=8 l=0.5
X209 a_n2804_13878# a_n2982_13878# a_n2982_13878# vdd sky130_fd_pr__pfet_01v8 ad=1.485 pd=9.33 as=1.485 ps=9.33 w=9 l=0.5
X210 vdd a_n2982_13878# a_n2982_8322# vdd sky130_fd_pr__pfet_01v8 ad=1.485 pd=9.33 as=3.51 ps=18.78 w=9 l=0.5
X211 vdd a_n7636_8799# CSoutput vdd sky130_fd_pr__pfet_01v8 ad=1.32 pd=8.33 as=1.32 ps=8.33 w=8 l=0.5
X212 output outputibias gnd gnd sky130_fd_pr__nfet_01v8 ad=2.34 pd=12.78 as=2.34 ps=12.78 w=6 l=2
X213 CSoutput commonsourceibias gnd gnd sky130_fd_pr__nfet_01v8 ad=1.155 pd=7.33 as=1.155 ps=7.33 w=7 l=1
X214 CSoutput a_n2982_8322# sky130_fd_pr__cap_mim_m3_1 l=12 w=12
X215 commonsourceibias commonsourceibias gnd gnd sky130_fd_pr__nfet_01v8 ad=1.155 pd=7.33 as=1.155 ps=7.33 w=7 l=1
X216 gnd gnd gnd gnd sky130_fd_pr__nfet_01v8 ad=2.73 pd=14.78 as=0 ps=0 w=7 l=1
X217 a_n2804_13878# a_n2982_13878# vdd vdd sky130_fd_pr__pfet_01v8 ad=3.51 pd=18.78 as=1.485 ps=9.33 w=9 l=0.5
X218 vdd CSoutput output gnd sky130_fd_pr__nfet_01v8 ad=0.825 pd=5.33 as=0.825 ps=5.33 w=5 l=1
X219 CSoutput commonsourceibias gnd gnd sky130_fd_pr__nfet_01v8 ad=1.155 pd=7.33 as=1.155 ps=7.33 w=7 l=1
X220 plus gnd gnd gnd sky130_fd_pr__nfet_01v8 ad=0.165 pd=1.33 as=0.165 ps=1.33 w=1 l=0.5
X221 gnd commonsourceibias CSoutput gnd sky130_fd_pr__nfet_01v8 ad=1.155 pd=7.33 as=1.155 ps=7.33 w=7 l=1
X222 CSoutput a_n2982_8322# sky130_fd_pr__cap_mim_m3_1 l=12 w=12
X223 gnd commonsourceibias commonsourceibias gnd sky130_fd_pr__nfet_01v8 ad=2.73 pd=14.78 as=1.155 ps=7.33 w=7 l=1
X224 gnd commonsourceibias CSoutput gnd sky130_fd_pr__nfet_01v8 ad=1.155 pd=7.33 as=1.155 ps=7.33 w=7 l=1
X225 CSoutput commonsourceibias gnd gnd sky130_fd_pr__nfet_01v8 ad=1.155 pd=7.33 as=1.155 ps=7.33 w=7 l=1
X226 gnd gnd minus gnd sky130_fd_pr__nfet_01v8 ad=0.165 pd=1.33 as=0.165 ps=1.33 w=1 l=0.5
X227 gnd gnd gnd gnd sky130_fd_pr__nfet_01v8 ad=2.73 pd=14.78 as=0 ps=0 w=7 l=1
X228 CSoutput commonsourceibias gnd gnd sky130_fd_pr__nfet_01v8 ad=1.155 pd=7.33 as=1.155 ps=7.33 w=7 l=1
X229 vdd vdd vdd vdd sky130_fd_pr__pfet_01v8 ad=3.12 pd=16.78 as=0 ps=0 w=8 l=0.5
X230 gnd commonsourceibias CSoutput gnd sky130_fd_pr__nfet_01v8 ad=1.155 pd=7.33 as=1.155 ps=7.33 w=7 l=1
X231 CSoutput commonsourceibias gnd gnd sky130_fd_pr__nfet_01v8 ad=1.155 pd=7.33 as=1.155 ps=7.33 w=7 l=1
X232 vdd vdd vdd vdd sky130_fd_pr__pfet_01v8 ad=3.12 pd=16.78 as=0 ps=0 w=8 l=0.5
X233 a_n3827_n3924# diffpairibias gnd gnd sky130_fd_pr__nfet_01v8 ad=2.73 pd=14.78 as=2.73 ps=14.78 w=7 l=1
X234 gnd commonsourceibias CSoutput gnd sky130_fd_pr__nfet_01v8 ad=1.155 pd=7.33 as=1.155 ps=7.33 w=7 l=1
X235 commonsourceibias commonsourceibias gnd gnd sky130_fd_pr__nfet_01v8 ad=1.155 pd=7.33 as=1.155 ps=7.33 w=7 l=1
X236 vdd vdd vdd vdd sky130_fd_pr__pfet_01v8 ad=3.12 pd=16.78 as=0 ps=0 w=8 l=0.5
X237 vdd a_n2982_13878# a_n2982_8322# vdd sky130_fd_pr__pfet_01v8 ad=1.485 pd=9.33 as=1.485 ps=9.33 w=9 l=0.5
X238 a_n2982_8322# a_n2982_13878# a_n7636_8799# vdd sky130_fd_pr__pfet_01v8 ad=1.485 pd=9.33 as=1.485 ps=9.33 w=9 l=0.5
X239 CSoutput commonsourceibias gnd gnd sky130_fd_pr__nfet_01v8 ad=1.155 pd=7.33 as=1.155 ps=7.33 w=7 l=1
X240 gnd commonsourceibias CSoutput gnd sky130_fd_pr__nfet_01v8 ad=1.155 pd=7.33 as=1.155 ps=7.33 w=7 l=1
X241 CSoutput commonsourceibias gnd gnd sky130_fd_pr__nfet_01v8 ad=1.155 pd=7.33 as=1.155 ps=7.33 w=7 l=1
X242 gnd commonsourceibias CSoutput gnd sky130_fd_pr__nfet_01v8 ad=1.155 pd=7.33 as=1.155 ps=7.33 w=7 l=1
X243 gnd commonsourceibias CSoutput gnd sky130_fd_pr__nfet_01v8 ad=2.73 pd=14.78 as=1.155 ps=7.33 w=7 l=1
X244 CSoutput commonsourceibias gnd gnd sky130_fd_pr__nfet_01v8 ad=1.155 pd=7.33 as=1.155 ps=7.33 w=7 l=1
X245 commonsourceibias commonsourceibias gnd gnd sky130_fd_pr__nfet_01v8 ad=1.155 pd=7.33 as=1.155 ps=7.33 w=7 l=1
X246 a_n3827_n3924# plus a_n7636_8799# gnd sky130_fd_pr__nfet_01v8 ad=1.155 pd=7.33 as=1.155 ps=7.33 w=7 l=0.5
X247 vdd vdd vdd vdd sky130_fd_pr__pfet_01v8 ad=3.51 pd=18.78 as=0 ps=0 w=9 l=0.5
X248 vdd a_n7636_8799# CSoutput vdd sky130_fd_pr__pfet_01v8 ad=3.12 pd=16.78 as=1.32 ps=8.33 w=8 l=0.5
X249 a_n7636_8799# plus a_n3827_n3924# gnd sky130_fd_pr__nfet_01v8 ad=1.155 pd=7.33 as=1.155 ps=7.33 w=7 l=0.5
X250 CSoutput a_n7636_8799# vdd vdd sky130_fd_pr__pfet_01v8 ad=1.32 pd=8.33 as=3.12 ps=16.78 w=8 l=0.5
X251 a_n3827_n3924# minus a_n2982_13878# gnd sky130_fd_pr__nfet_01v8 ad=1.155 pd=7.33 as=1.155 ps=7.33 w=7 l=0.5
X252 a_n2804_13878# a_n2982_13878# a_n2982_13878# vdd sky130_fd_pr__pfet_01v8 ad=1.485 pd=9.33 as=1.485 ps=9.33 w=9 l=0.5
X253 CSoutput a_n7636_8799# vdd vdd sky130_fd_pr__pfet_01v8 ad=1.32 pd=8.33 as=3.12 ps=16.78 w=8 l=0.5
X254 CSoutput commonsourceibias gnd gnd sky130_fd_pr__nfet_01v8 ad=1.155 pd=7.33 as=1.155 ps=7.33 w=7 l=1
X255 gnd gnd gnd gnd sky130_fd_pr__nfet_01v8 ad=1.95 pd=10.78 as=0 ps=0 w=5 l=1
X256 a_n2982_8322# a_n2982_13878# a_n7636_8799# vdd sky130_fd_pr__pfet_01v8 ad=1.485 pd=9.33 as=1.485 ps=9.33 w=9 l=0.5
X257 diffpairibias diffpairibias gnd gnd sky130_fd_pr__nfet_01v8 ad=2.73 pd=14.78 as=2.73 ps=14.78 w=7 l=1
X258 gnd commonsourceibias CSoutput gnd sky130_fd_pr__nfet_01v8 ad=1.155 pd=7.33 as=1.155 ps=7.33 w=7 l=1
X259 CSoutput commonsourceibias gnd gnd sky130_fd_pr__nfet_01v8 ad=1.155 pd=7.33 as=1.155 ps=7.33 w=7 l=1
X260 gnd commonsourceibias commonsourceibias gnd sky130_fd_pr__nfet_01v8 ad=2.73 pd=14.78 as=1.155 ps=7.33 w=7 l=1
X261 a_n3827_n3924# minus a_n2982_13878# gnd sky130_fd_pr__nfet_01v8 ad=1.155 pd=7.33 as=1.155 ps=7.33 w=7 l=0.5
X262 gnd gnd gnd gnd sky130_fd_pr__nfet_01v8 ad=2.73 pd=14.78 as=0 ps=0 w=7 l=1
X263 a_n7636_8799# plus a_n3827_n3924# gnd sky130_fd_pr__nfet_01v8 ad=1.155 pd=7.33 as=1.155 ps=7.33 w=7 l=0.5
X264 output CSoutput vdd gnd sky130_fd_pr__nfet_01v8 ad=0.825 pd=5.33 as=0.825 ps=5.33 w=5 l=1
X265 commonsourceibias commonsourceibias gnd gnd sky130_fd_pr__nfet_01v8 ad=1.155 pd=7.33 as=1.155 ps=7.33 w=7 l=1
X266 gnd commonsourceibias CSoutput gnd sky130_fd_pr__nfet_01v8 ad=1.155 pd=7.33 as=1.155 ps=7.33 w=7 l=1
X267 CSoutput a_n7636_8799# vdd vdd sky130_fd_pr__pfet_01v8 ad=1.32 pd=8.33 as=1.32 ps=8.33 w=8 l=0.5
X268 a_n3827_n3924# diffpairibias gnd gnd sky130_fd_pr__nfet_01v8 ad=2.73 pd=14.78 as=2.73 ps=14.78 w=7 l=1
X269 vdd vdd vdd vdd sky130_fd_pr__pfet_01v8 ad=3.12 pd=16.78 as=0 ps=0 w=8 l=0.5
X270 gnd commonsourceibias CSoutput gnd sky130_fd_pr__nfet_01v8 ad=1.155 pd=7.33 as=1.155 ps=7.33 w=7 l=1
X271 a_n2982_8322# a_n2982_13878# vdd vdd sky130_fd_pr__pfet_01v8 ad=3.51 pd=18.78 as=1.485 ps=9.33 w=9 l=0.5
X272 gnd commonsourceibias CSoutput gnd sky130_fd_pr__nfet_01v8 ad=1.155 pd=7.33 as=1.155 ps=7.33 w=7 l=1
X273 CSoutput commonsourceibias gnd gnd sky130_fd_pr__nfet_01v8 ad=1.155 pd=7.33 as=1.155 ps=7.33 w=7 l=1
X274 output CSoutput vdd gnd sky130_fd_pr__nfet_01v8 ad=1.95 pd=10.78 as=0.825 ps=5.33 w=5 l=1
X275 gnd commonsourceibias commonsourceibias gnd sky130_fd_pr__nfet_01v8 ad=1.155 pd=7.33 as=1.155 ps=7.33 w=7 l=1
X276 a_n3827_n3924# plus a_n7636_8799# gnd sky130_fd_pr__nfet_01v8 ad=1.155 pd=7.33 as=1.155 ps=7.33 w=7 l=0.5
X277 commonsourceibias commonsourceibias gnd gnd sky130_fd_pr__nfet_01v8 ad=1.155 pd=7.33 as=1.155 ps=7.33 w=7 l=1
X278 vdd a_n2982_13878# a_n2804_13878# vdd sky130_fd_pr__pfet_01v8 ad=1.485 pd=9.33 as=3.51 ps=18.78 w=9 l=0.5
X279 CSoutput a_n7636_8799# vdd vdd sky130_fd_pr__pfet_01v8 ad=1.32 pd=8.33 as=1.32 ps=8.33 w=8 l=0.5
X280 gnd commonsourceibias CSoutput gnd sky130_fd_pr__nfet_01v8 ad=1.155 pd=7.33 as=1.155 ps=7.33 w=7 l=1
X281 CSoutput commonsourceibias gnd gnd sky130_fd_pr__nfet_01v8 ad=1.155 pd=7.33 as=1.155 ps=7.33 w=7 l=1
X282 CSoutput commonsourceibias gnd gnd sky130_fd_pr__nfet_01v8 ad=1.155 pd=7.33 as=1.155 ps=7.33 w=7 l=1
X283 gnd commonsourceibias CSoutput gnd sky130_fd_pr__nfet_01v8 ad=1.155 pd=7.33 as=1.155 ps=7.33 w=7 l=1
X284 commonsourceibias commonsourceibias gnd gnd sky130_fd_pr__nfet_01v8 ad=1.155 pd=7.33 as=1.155 ps=7.33 w=7 l=1
X285 gnd gnd gnd gnd sky130_fd_pr__nfet_01v8 ad=2.73 pd=14.78 as=0 ps=0 w=7 l=0.5
X286 gnd commonsourceibias CSoutput gnd sky130_fd_pr__nfet_01v8 ad=1.155 pd=7.33 as=1.155 ps=7.33 w=7 l=1