* NGSPICE file created from opamp106.ext - technology: sky130A

.subckt opamp106 gnd CSoutput output vdd plus minus commonsourceibias outputibias
+ diffpairibias
X0 a_n1808_13878.t19 a_n1986_13878.t27 a_n1986_13878.t28 vdd.t229 sky130_fd_pr__pfet_01v8 ad=1.485 pd=9.33 as=1.485 ps=9.33 w=9 l=0.5
X1 CSoutput.t100 a_n6972_8799.t28 vdd.t174 vdd.t42 sky130_fd_pr__pfet_01v8 ad=1.32 pd=8.33 as=1.32 ps=8.33 w=8 l=0.5
X2 a_n1808_13878.t4 a_n1986_13878.t40 vdd.t240 vdd.t239 sky130_fd_pr__pfet_01v8 ad=1.485 pd=9.33 as=1.485 ps=9.33 w=9 l=0.5
X3 CSoutput.t99 a_n6972_8799.t29 vdd.t20 vdd.t19 sky130_fd_pr__pfet_01v8 ad=1.32 pd=8.33 as=1.32 ps=8.33 w=8 l=0.5
X4 vdd.t40 a_n6972_8799.t30 CSoutput.t98 vdd.t12 sky130_fd_pr__pfet_01v8 ad=1.32 pd=8.33 as=1.32 ps=8.33 w=8 l=0.5
X5 gnd.t210 gnd.t207 gnd.t209 gnd.t208 sky130_fd_pr__nfet_01v8 ad=2.34 pd=12.78 as=0 ps=0 w=6 l=2
X6 commonsourceibias.t47 commonsourceibias.t46 gnd.t47 gnd.t14 sky130_fd_pr__nfet_01v8 ad=1.155 pd=7.33 as=2.73 ps=14.78 w=7 l=1
X7 gnd.t85 commonsourceibias.t48 CSoutput.t118 gnd.t30 sky130_fd_pr__nfet_01v8 ad=1.155 pd=7.33 as=1.155 ps=7.33 w=7 l=1
X8 gnd.t206 gnd.t204 gnd.t205 gnd.t189 sky130_fd_pr__nfet_01v8 ad=2.73 pd=14.78 as=0 ps=0 w=7 l=1
X9 vdd.t157 vdd.t155 vdd.t156 vdd.t91 sky130_fd_pr__pfet_01v8 ad=3.12 pd=16.78 as=0 ps=0 w=8 l=0.5
X10 output.t3 outputibias.t8 gnd.t272 gnd.t271 sky130_fd_pr__nfet_01v8 ad=2.34 pd=12.78 as=2.34 ps=12.78 w=6 l=2
X11 output.t19 CSoutput.t144 vdd.t246 gnd.t230 sky130_fd_pr__nfet_01v8 ad=0.825 pd=5.33 as=0.825 ps=5.33 w=5 l=1
X12 CSoutput.t97 a_n6972_8799.t31 vdd.t36 vdd.t35 sky130_fd_pr__pfet_01v8 ad=1.32 pd=8.33 as=1.32 ps=8.33 w=8 l=0.5
X13 gnd.t273 commonsourceibias.t49 CSoutput.t142 gnd.t24 sky130_fd_pr__nfet_01v8 ad=1.155 pd=7.33 as=1.155 ps=7.33 w=7 l=1
X14 gnd.t279 commonsourceibias.t44 commonsourceibias.t45 gnd.t212 sky130_fd_pr__nfet_01v8 ad=1.155 pd=7.33 as=1.155 ps=7.33 w=7 l=1
X15 a_n1986_8322.t13 a_n1986_13878.t41 a_n6972_8799.t21 vdd.t238 sky130_fd_pr__pfet_01v8 ad=1.485 pd=9.33 as=1.485 ps=9.33 w=9 l=0.5
X16 gnd.t252 commonsourceibias.t50 CSoutput.t133 gnd.t212 sky130_fd_pr__nfet_01v8 ad=1.155 pd=7.33 as=1.155 ps=7.33 w=7 l=1
X17 outputibias.t7 outputibias.t6 gnd.t239 gnd.t238 sky130_fd_pr__nfet_01v8 ad=2.34 pd=12.78 as=2.34 ps=12.78 w=6 l=2
X18 output.t18 CSoutput.t145 vdd.t247 gnd.t229 sky130_fd_pr__nfet_01v8 ad=1.95 pd=10.78 as=0.825 ps=5.33 w=5 l=1
X19 CSoutput.t96 a_n6972_8799.t32 vdd.t15 vdd.t14 sky130_fd_pr__pfet_01v8 ad=1.32 pd=8.33 as=1.32 ps=8.33 w=8 l=0.5
X20 vdd.t243 a_n6972_8799.t33 CSoutput.t95 vdd.t160 sky130_fd_pr__pfet_01v8 ad=1.32 pd=8.33 as=1.32 ps=8.33 w=8 l=0.5
X21 a_n6972_8799.t1 plus.t5 a_n2903_n3924.t17 gnd.t36 sky130_fd_pr__nfet_01v8 ad=1.155 pd=7.33 as=1.155 ps=7.33 w=7 l=0.5
X22 gnd.t53 commonsourceibias.t42 commonsourceibias.t43 gnd.t26 sky130_fd_pr__nfet_01v8 ad=1.155 pd=7.33 as=1.155 ps=7.33 w=7 l=1
X23 CSoutput.t94 a_n6972_8799.t34 vdd.t3 vdd.t2 sky130_fd_pr__pfet_01v8 ad=1.32 pd=8.33 as=1.32 ps=8.33 w=8 l=0.5
X24 vdd.t26 a_n6972_8799.t35 CSoutput.t93 vdd.t25 sky130_fd_pr__pfet_01v8 ad=1.32 pd=8.33 as=1.32 ps=8.33 w=8 l=0.5
X25 a_n6972_8799.t22 a_n1986_13878.t42 a_n1986_8322.t12 vdd.t198 sky130_fd_pr__pfet_01v8 ad=1.485 pd=9.33 as=3.51 ps=18.78 w=9 l=0.5
X26 vdd.t69 a_n6972_8799.t36 CSoutput.t92 vdd.t68 sky130_fd_pr__pfet_01v8 ad=1.32 pd=8.33 as=1.32 ps=8.33 w=8 l=0.5
X27 CSoutput.t91 a_n6972_8799.t37 vdd.t72 vdd.t71 sky130_fd_pr__pfet_01v8 ad=1.32 pd=8.33 as=3.12 ps=16.78 w=8 l=0.5
X28 a_n6972_8799.t9 plus.t6 a_n2903_n3924.t16 gnd.t211 sky130_fd_pr__nfet_01v8 ad=1.155 pd=7.33 as=1.155 ps=7.33 w=7 l=0.5
X29 CSoutput.t113 commonsourceibias.t51 gnd.t72 gnd.t51 sky130_fd_pr__nfet_01v8 ad=1.155 pd=7.33 as=1.155 ps=7.33 w=7 l=1
X30 CSoutput.t146 a_n1986_8322.t0 sky130_fd_pr__cap_mim_m3_1 l=12 w=12
X31 gnd.t278 commonsourceibias.t40 commonsourceibias.t41 gnd.t22 sky130_fd_pr__nfet_01v8 ad=1.155 pd=7.33 as=1.155 ps=7.33 w=7 l=1
X32 CSoutput.t90 a_n6972_8799.t38 vdd.t43 vdd.t42 sky130_fd_pr__pfet_01v8 ad=1.32 pd=8.33 as=1.32 ps=8.33 w=8 l=0.5
X33 vdd.t154 vdd.t152 vdd.t153 vdd.t87 sky130_fd_pr__pfet_01v8 ad=3.12 pd=16.78 as=0 ps=0 w=8 l=0.5
X34 vdd.t244 CSoutput.t147 output.t17 gnd.t228 sky130_fd_pr__nfet_01v8 ad=0.825 pd=5.33 as=0.825 ps=5.33 w=5 l=1
X35 vdd.t245 CSoutput.t148 output.t16 gnd.t227 sky130_fd_pr__nfet_01v8 ad=0.825 pd=5.33 as=1.95 ps=10.78 w=5 l=1
X36 CSoutput.t89 a_n6972_8799.t39 vdd.t66 vdd.t65 sky130_fd_pr__pfet_01v8 ad=1.32 pd=8.33 as=1.32 ps=8.33 w=8 l=0.5
X37 vdd.t151 vdd.t149 vdd.t150 vdd.t91 sky130_fd_pr__pfet_01v8 ad=3.12 pd=16.78 as=0 ps=0 w=8 l=0.5
X38 gnd.t203 gnd.t201 plus.t4 gnd.t202 sky130_fd_pr__nfet_01v8 ad=0.165 pd=1.33 as=0.39 ps=2.78 w=1 l=0.5
X39 a_n2903_n3924.t22 minus.t5 a_n1986_13878.t0 gnd.t81 sky130_fd_pr__nfet_01v8 ad=1.155 pd=7.33 as=1.155 ps=7.33 w=7 l=0.5
X40 CSoutput.t116 commonsourceibias.t52 gnd.t79 gnd.t48 sky130_fd_pr__nfet_01v8 ad=1.155 pd=7.33 as=1.155 ps=7.33 w=7 l=1
X41 a_n2903_n3924.t0 diffpairibias.t16 gnd.t21 gnd.t20 sky130_fd_pr__nfet_01v8 ad=2.73 pd=14.78 as=2.73 ps=14.78 w=7 l=1
X42 a_n1986_13878.t3 minus.t6 a_n2903_n3924.t25 gnd.t68 sky130_fd_pr__nfet_01v8 ad=1.155 pd=7.33 as=2.73 ps=14.78 w=7 l=0.5
X43 a_n2903_n3924.t15 plus.t7 a_n6972_8799.t26 gnd.t264 sky130_fd_pr__nfet_01v8 ad=2.73 pd=14.78 as=1.155 ps=7.33 w=7 l=0.5
X44 CSoutput.t88 a_n6972_8799.t40 vdd.t81 vdd.t35 sky130_fd_pr__pfet_01v8 ad=1.32 pd=8.33 as=1.32 ps=8.33 w=8 l=0.5
X45 CSoutput.t125 commonsourceibias.t53 gnd.t101 gnd.t90 sky130_fd_pr__nfet_01v8 ad=1.155 pd=7.33 as=1.155 ps=7.33 w=7 l=1
X46 a_n2903_n3924.t24 minus.t7 a_n1986_13878.t2 gnd.t255 sky130_fd_pr__nfet_01v8 ad=1.155 pd=7.33 as=1.155 ps=7.33 w=7 l=0.5
X47 a_n1808_13878.t18 a_n1986_13878.t21 a_n1986_13878.t22 vdd.t205 sky130_fd_pr__pfet_01v8 ad=1.485 pd=9.33 as=3.51 ps=18.78 w=9 l=0.5
X48 a_n1986_13878.t32 a_n1986_13878.t31 a_n1808_13878.t17 vdd.t214 sky130_fd_pr__pfet_01v8 ad=1.485 pd=9.33 as=1.485 ps=9.33 w=9 l=0.5
X49 CSoutput.t87 a_n6972_8799.t41 vdd.t255 vdd.t0 sky130_fd_pr__pfet_01v8 ad=1.32 pd=8.33 as=1.32 ps=8.33 w=8 l=0.5
X50 vdd.t78 a_n6972_8799.t42 CSoutput.t86 vdd.t68 sky130_fd_pr__pfet_01v8 ad=1.32 pd=8.33 as=1.32 ps=8.33 w=8 l=0.5
X51 CSoutput.t3 commonsourceibias.t54 gnd.t15 gnd.t14 sky130_fd_pr__nfet_01v8 ad=1.155 pd=7.33 as=2.73 ps=14.78 w=7 l=1
X52 CSoutput.t85 a_n6972_8799.t43 vdd.t178 vdd.t14 sky130_fd_pr__pfet_01v8 ad=1.32 pd=8.33 as=1.32 ps=8.33 w=8 l=0.5
X53 vdd.t148 vdd.t146 vdd.t147 vdd.t122 sky130_fd_pr__pfet_01v8 ad=3.51 pd=18.78 as=0 ps=0 w=9 l=0.5
X54 vdd.t161 a_n6972_8799.t44 CSoutput.t84 vdd.t160 sky130_fd_pr__pfet_01v8 ad=1.32 pd=8.33 as=1.32 ps=8.33 w=8 l=0.5
X55 a_n2903_n3924.t26 minus.t8 a_n1986_13878.t4 gnd.t240 sky130_fd_pr__nfet_01v8 ad=1.155 pd=7.33 as=1.155 ps=7.33 w=7 l=0.5
X56 diffpairibias.t15 diffpairibias.t14 gnd.t83 gnd.t82 sky130_fd_pr__nfet_01v8 ad=2.73 pd=14.78 as=2.73 ps=14.78 w=7 l=1
X57 gnd.t200 gnd.t198 gnd.t199 gnd.t189 sky130_fd_pr__nfet_01v8 ad=2.73 pd=14.78 as=0 ps=0 w=7 l=1
X58 vdd.t39 a_n6972_8799.t45 CSoutput.t83 vdd.t6 sky130_fd_pr__pfet_01v8 ad=1.32 pd=8.33 as=1.32 ps=8.33 w=8 l=0.5
X59 CSoutput.t82 a_n6972_8799.t46 vdd.t76 vdd.t75 sky130_fd_pr__pfet_01v8 ad=1.32 pd=8.33 as=1.32 ps=8.33 w=8 l=0.5
X60 gnd.t197 gnd.t195 plus.t3 gnd.t196 sky130_fd_pr__nfet_01v8 ad=0.39 pd=2.78 as=0.165 ps=1.33 w=1 l=0.5
X61 vdd.t257 a_n6972_8799.t47 CSoutput.t81 vdd.t252 sky130_fd_pr__pfet_01v8 ad=1.32 pd=8.33 as=1.32 ps=8.33 w=8 l=0.5
X62 CSoutput.t80 a_n6972_8799.t48 vdd.t187 vdd.t71 sky130_fd_pr__pfet_01v8 ad=1.32 pd=8.33 as=3.12 ps=16.78 w=8 l=0.5
X63 vdd.t176 a_n6972_8799.t49 CSoutput.t79 vdd.t68 sky130_fd_pr__pfet_01v8 ad=1.32 pd=8.33 as=1.32 ps=8.33 w=8 l=0.5
X64 minus.t4 gnd.t192 gnd.t194 gnd.t193 sky130_fd_pr__nfet_01v8 ad=0.165 pd=1.33 as=0.165 ps=1.33 w=1 l=0.5
X65 gnd.t50 commonsourceibias.t55 CSoutput.t104 gnd.t24 sky130_fd_pr__nfet_01v8 ad=1.155 pd=7.33 as=1.155 ps=7.33 w=7 l=1
X66 gnd.t76 commonsourceibias.t56 CSoutput.t114 gnd.t75 sky130_fd_pr__nfet_01v8 ad=1.155 pd=7.33 as=1.155 ps=7.33 w=7 l=1
X67 diffpairibias.t13 diffpairibias.t12 gnd.t277 gnd.t276 sky130_fd_pr__nfet_01v8 ad=2.73 pd=14.78 as=2.73 ps=14.78 w=7 l=1
X68 CSoutput.t78 a_n6972_8799.t50 vdd.t49 vdd.t44 sky130_fd_pr__pfet_01v8 ad=1.32 pd=8.33 as=3.12 ps=16.78 w=8 l=0.5
X69 output.t15 CSoutput.t149 vdd.t182 gnd.t226 sky130_fd_pr__nfet_01v8 ad=0.825 pd=5.33 as=0.825 ps=5.33 w=5 l=1
X70 gnd.t269 commonsourceibias.t57 CSoutput.t140 gnd.t22 sky130_fd_pr__nfet_01v8 ad=1.155 pd=7.33 as=1.155 ps=7.33 w=7 l=1
X71 commonsourceibias.t39 commonsourceibias.t38 gnd.t98 gnd.t51 sky130_fd_pr__nfet_01v8 ad=1.155 pd=7.33 as=1.155 ps=7.33 w=7 l=1
X72 vdd.t183 CSoutput.t150 output.t14 gnd.t225 sky130_fd_pr__nfet_01v8 ad=0.825 pd=5.33 as=0.825 ps=5.33 w=5 l=1
X73 CSoutput.t77 a_n6972_8799.t51 vdd.t259 vdd.t163 sky130_fd_pr__pfet_01v8 ad=1.32 pd=8.33 as=1.32 ps=8.33 w=8 l=0.5
X74 vdd.t48 a_n6972_8799.t52 CSoutput.t76 vdd.t33 sky130_fd_pr__pfet_01v8 ad=1.32 pd=8.33 as=1.32 ps=8.33 w=8 l=0.5
X75 CSoutput.t75 a_n6972_8799.t53 vdd.t191 vdd.t163 sky130_fd_pr__pfet_01v8 ad=1.32 pd=8.33 as=1.32 ps=8.33 w=8 l=0.5
X76 CSoutput.t74 a_n6972_8799.t54 vdd.t177 vdd.t65 sky130_fd_pr__pfet_01v8 ad=1.32 pd=8.33 as=1.32 ps=8.33 w=8 l=0.5
X77 vdd.t53 a_n6972_8799.t55 CSoutput.t73 vdd.t52 sky130_fd_pr__pfet_01v8 ad=1.32 pd=8.33 as=1.32 ps=8.33 w=8 l=0.5
X78 gnd.t268 commonsourceibias.t58 CSoutput.t139 gnd.t73 sky130_fd_pr__nfet_01v8 ad=1.155 pd=7.33 as=1.155 ps=7.33 w=7 l=1
X79 a_n6972_8799.t6 plus.t8 a_n2903_n3924.t14 gnd.t80 sky130_fd_pr__nfet_01v8 ad=1.155 pd=7.33 as=1.155 ps=7.33 w=7 l=0.5
X80 commonsourceibias.t37 commonsourceibias.t36 gnd.t62 gnd.t61 sky130_fd_pr__nfet_01v8 ad=1.155 pd=7.33 as=1.155 ps=7.33 w=7 l=1
X81 a_n2903_n3924.t1 diffpairibias.t17 gnd.t40 gnd.t39 sky130_fd_pr__nfet_01v8 ad=2.73 pd=14.78 as=2.73 ps=14.78 w=7 l=1
X82 gnd.t74 commonsourceibias.t34 commonsourceibias.t35 gnd.t73 sky130_fd_pr__nfet_01v8 ad=1.155 pd=7.33 as=1.155 ps=7.33 w=7 l=1
X83 vdd.t41 a_n6972_8799.t56 CSoutput.t72 vdd.t25 sky130_fd_pr__pfet_01v8 ad=1.32 pd=8.33 as=1.32 ps=8.33 w=8 l=0.5
X84 vdd.t61 a_n6972_8799.t57 CSoutput.t71 vdd.t8 sky130_fd_pr__pfet_01v8 ad=1.32 pd=8.33 as=1.32 ps=8.33 w=8 l=0.5
X85 a_n6972_8799.t15 a_n1986_13878.t43 a_n1986_8322.t11 vdd.t228 sky130_fd_pr__pfet_01v8 ad=1.485 pd=9.33 as=1.485 ps=9.33 w=9 l=0.5
X86 a_n1986_13878.t18 a_n1986_13878.t17 a_n1808_13878.t16 vdd.t238 sky130_fd_pr__pfet_01v8 ad=1.485 pd=9.33 as=1.485 ps=9.33 w=9 l=0.5
X87 a_n2903_n3924.t23 minus.t9 a_n1986_13878.t1 gnd.t19 sky130_fd_pr__nfet_01v8 ad=1.155 pd=7.33 as=1.155 ps=7.33 w=7 l=0.5
X88 a_n1986_13878.t36 a_n1986_13878.t35 a_n1808_13878.t15 vdd.t201 sky130_fd_pr__pfet_01v8 ad=3.51 pd=18.78 as=1.485 ps=9.33 w=9 l=0.5
X89 vdd.t256 a_n6972_8799.t58 CSoutput.t70 vdd.t52 sky130_fd_pr__pfet_01v8 ad=1.32 pd=8.33 as=1.32 ps=8.33 w=8 l=0.5
X90 a_n2903_n3924.t13 plus.t9 a_n6972_8799.t8 gnd.t93 sky130_fd_pr__nfet_01v8 ad=1.155 pd=7.33 as=1.155 ps=7.33 w=7 l=0.5
X91 a_n1986_13878.t5 minus.t10 a_n2903_n3924.t27 gnd.t37 sky130_fd_pr__nfet_01v8 ad=1.155 pd=7.33 as=1.155 ps=7.33 w=7 l=0.5
X92 gnd.t45 commonsourceibias.t32 commonsourceibias.t33 gnd.t28 sky130_fd_pr__nfet_01v8 ad=2.73 pd=14.78 as=1.155 ps=7.33 w=7 l=1
X93 commonsourceibias.t31 commonsourceibias.t30 gnd.t257 gnd.t90 sky130_fd_pr__nfet_01v8 ad=1.155 pd=7.33 as=1.155 ps=7.33 w=7 l=1
X94 outputibias.t5 outputibias.t4 gnd.t259 gnd.t258 sky130_fd_pr__nfet_01v8 ad=2.34 pd=12.78 as=2.34 ps=12.78 w=6 l=2
X95 CSoutput.t69 a_n6972_8799.t59 vdd.t22 vdd.t21 sky130_fd_pr__pfet_01v8 ad=1.32 pd=8.33 as=1.32 ps=8.33 w=8 l=0.5
X96 vdd.t24 a_n6972_8799.t60 CSoutput.t68 vdd.t23 sky130_fd_pr__pfet_01v8 ad=1.32 pd=8.33 as=1.32 ps=8.33 w=8 l=0.5
X97 CSoutput.t132 commonsourceibias.t59 gnd.t251 gnd.t48 sky130_fd_pr__nfet_01v8 ad=1.155 pd=7.33 as=1.155 ps=7.33 w=7 l=1
X98 a_n2903_n3924.t34 minus.t11 a_n1986_13878.t12 gnd.t46 sky130_fd_pr__nfet_01v8 ad=2.73 pd=14.78 as=1.155 ps=7.33 w=7 l=0.5
X99 vdd.t184 CSoutput.t151 output.t13 gnd.t224 sky130_fd_pr__nfet_01v8 ad=0.825 pd=5.33 as=0.825 ps=5.33 w=5 l=1
X100 CSoutput.t67 a_n6972_8799.t61 vdd.t45 vdd.t44 sky130_fd_pr__pfet_01v8 ad=1.32 pd=8.33 as=3.12 ps=16.78 w=8 l=0.5
X101 vdd.t253 a_n6972_8799.t62 CSoutput.t66 vdd.t252 sky130_fd_pr__pfet_01v8 ad=1.32 pd=8.33 as=1.32 ps=8.33 w=8 l=0.5
X102 vdd.t145 vdd.t143 vdd.t144 vdd.t130 sky130_fd_pr__pfet_01v8 ad=3.51 pd=18.78 as=0 ps=0 w=9 l=0.5
X103 CSoutput.t0 commonsourceibias.t60 gnd.t5 gnd.t4 sky130_fd_pr__nfet_01v8 ad=1.155 pd=7.33 as=1.155 ps=7.33 w=7 l=1
X104 vdd.t142 vdd.t139 vdd.t141 vdd.t140 sky130_fd_pr__pfet_01v8 ad=3.51 pd=18.78 as=0 ps=0 w=9 l=0.5
X105 gnd.t60 commonsourceibias.t61 CSoutput.t110 gnd.t28 sky130_fd_pr__nfet_01v8 ad=2.73 pd=14.78 as=1.155 ps=7.33 w=7 l=1
X106 gnd.t191 gnd.t188 gnd.t190 gnd.t189 sky130_fd_pr__nfet_01v8 ad=2.73 pd=14.78 as=0 ps=0 w=7 l=1
X107 commonsourceibias.t29 commonsourceibias.t28 gnd.t35 gnd.t34 sky130_fd_pr__nfet_01v8 ad=1.155 pd=7.33 as=1.155 ps=7.33 w=7 l=1
X108 vdd.t138 vdd.t136 vdd.t137 vdd.t126 sky130_fd_pr__pfet_01v8 ad=3.51 pd=18.78 as=0 ps=0 w=9 l=0.5
X109 vdd.t135 vdd.t133 vdd.t134 vdd.t83 sky130_fd_pr__pfet_01v8 ad=3.51 pd=18.78 as=0 ps=0 w=9 l=0.5
X110 CSoutput.t106 commonsourceibias.t62 gnd.t54 gnd.t14 sky130_fd_pr__nfet_01v8 ad=1.155 pd=7.33 as=2.73 ps=14.78 w=7 l=1
X111 CSoutput.t152 a_n1986_8322.t1 sky130_fd_pr__cap_mim_m3_1 l=12 w=12
X112 outputibias.t3 outputibias.t2 gnd.t236 gnd.t235 sky130_fd_pr__nfet_01v8 ad=2.34 pd=12.78 as=2.34 ps=12.78 w=6 l=2
X113 a_n1986_8322.t21 a_n1986_13878.t44 vdd.t237 vdd.t236 sky130_fd_pr__pfet_01v8 ad=1.485 pd=9.33 as=1.485 ps=9.33 w=9 l=0.5
X114 vdd.t235 a_n1986_13878.t45 a_n1986_8322.t20 vdd.t234 sky130_fd_pr__pfet_01v8 ad=1.485 pd=9.33 as=1.485 ps=9.33 w=9 l=0.5
X115 CSoutput.t65 a_n6972_8799.t63 vdd.t164 vdd.t163 sky130_fd_pr__pfet_01v8 ad=1.32 pd=8.33 as=1.32 ps=8.33 w=8 l=0.5
X116 a_n1986_13878.t11 minus.t12 a_n2903_n3924.t33 gnd.t38 sky130_fd_pr__nfet_01v8 ad=1.155 pd=7.33 as=1.155 ps=7.33 w=7 l=0.5
X117 a_n2903_n3924.t19 diffpairibias.t18 gnd.t70 gnd.t69 sky130_fd_pr__nfet_01v8 ad=2.73 pd=14.78 as=2.73 ps=14.78 w=7 l=1
X118 vdd.t248 a_n6972_8799.t64 CSoutput.t64 vdd.t52 sky130_fd_pr__pfet_01v8 ad=1.32 pd=8.33 as=1.32 ps=8.33 w=8 l=0.5
X119 commonsourceibias.t27 commonsourceibias.t26 gnd.t92 gnd.t4 sky130_fd_pr__nfet_01v8 ad=1.155 pd=7.33 as=1.155 ps=7.33 w=7 l=1
X120 vdd.t233 a_n1986_13878.t46 a_n1808_13878.t1 vdd.t232 sky130_fd_pr__pfet_01v8 ad=1.485 pd=9.33 as=1.485 ps=9.33 w=9 l=0.5
X121 a_n2903_n3924.t12 plus.t10 a_n6972_8799.t11 gnd.t243 sky130_fd_pr__nfet_01v8 ad=1.155 pd=7.33 as=1.155 ps=7.33 w=7 l=0.5
X122 vdd.t132 vdd.t129 vdd.t131 vdd.t130 sky130_fd_pr__pfet_01v8 ad=3.51 pd=18.78 as=0 ps=0 w=9 l=0.5
X123 vdd.t128 vdd.t125 vdd.t127 vdd.t126 sky130_fd_pr__pfet_01v8 ad=3.51 pd=18.78 as=0 ps=0 w=9 l=0.5
X124 vdd.t54 a_n6972_8799.t65 CSoutput.t63 vdd.t25 sky130_fd_pr__pfet_01v8 ad=1.32 pd=8.33 as=1.32 ps=8.33 w=8 l=0.5
X125 gnd.t25 commonsourceibias.t24 commonsourceibias.t25 gnd.t24 sky130_fd_pr__nfet_01v8 ad=1.155 pd=7.33 as=1.155 ps=7.33 w=7 l=1
X126 gnd.t270 commonsourceibias.t63 CSoutput.t141 gnd.t75 sky130_fd_pr__nfet_01v8 ad=1.155 pd=7.33 as=1.155 ps=7.33 w=7 l=1
X127 a_n6972_8799.t14 a_n1986_13878.t47 a_n1986_8322.t10 vdd.t206 sky130_fd_pr__pfet_01v8 ad=1.485 pd=9.33 as=1.485 ps=9.33 w=9 l=0.5
X128 a_n1986_8322.t19 a_n1986_13878.t48 vdd.t231 vdd.t230 sky130_fd_pr__pfet_01v8 ad=3.51 pd=18.78 as=1.485 ps=9.33 w=9 l=0.5
X129 vdd.t124 vdd.t121 vdd.t123 vdd.t122 sky130_fd_pr__pfet_01v8 ad=3.51 pd=18.78 as=0 ps=0 w=9 l=0.5
X130 gnd.t23 commonsourceibias.t64 CSoutput.t101 gnd.t22 sky130_fd_pr__nfet_01v8 ad=1.155 pd=7.33 as=1.155 ps=7.33 w=7 l=1
X131 a_n6972_8799.t27 plus.t11 a_n2903_n3924.t11 gnd.t266 sky130_fd_pr__nfet_01v8 ad=1.155 pd=7.33 as=2.73 ps=14.78 w=7 l=0.5
X132 gnd.t13 commonsourceibias.t65 CSoutput.t2 gnd.t12 sky130_fd_pr__nfet_01v8 ad=2.73 pd=14.78 as=1.155 ps=7.33 w=7 l=1
X133 vdd.t60 a_n6972_8799.t66 CSoutput.t62 vdd.t23 sky130_fd_pr__pfet_01v8 ad=1.32 pd=8.33 as=1.32 ps=8.33 w=8 l=0.5
X134 a_n1986_13878.t30 a_n1986_13878.t29 a_n1808_13878.t14 vdd.t217 sky130_fd_pr__pfet_01v8 ad=1.485 pd=9.33 as=1.485 ps=9.33 w=9 l=0.5
X135 diffpairibias.t11 diffpairibias.t10 gnd.t89 gnd.t88 sky130_fd_pr__nfet_01v8 ad=2.73 pd=14.78 as=2.73 ps=14.78 w=7 l=1
X136 CSoutput.t61 a_n6972_8799.t67 vdd.t249 vdd.t21 sky130_fd_pr__pfet_01v8 ad=1.32 pd=8.33 as=1.32 ps=8.33 w=8 l=0.5
X137 a_n6972_8799.t23 a_n1986_13878.t49 a_n1986_8322.t9 vdd.t229 sky130_fd_pr__pfet_01v8 ad=1.485 pd=9.33 as=1.485 ps=9.33 w=9 l=0.5
X138 gnd.t59 commonsourceibias.t66 CSoutput.t109 gnd.t6 sky130_fd_pr__nfet_01v8 ad=1.155 pd=7.33 as=1.155 ps=7.33 w=7 l=1
X139 a_n1808_13878.t13 a_n1986_13878.t15 a_n1986_13878.t16 vdd.t228 sky130_fd_pr__pfet_01v8 ad=1.485 pd=9.33 as=1.485 ps=9.33 w=9 l=0.5
X140 outputibias.t1 outputibias.t0 gnd.t58 gnd.t57 sky130_fd_pr__nfet_01v8 ad=2.34 pd=12.78 as=2.34 ps=12.78 w=6 l=2
X141 plus.t2 gnd.t185 gnd.t187 gnd.t186 sky130_fd_pr__nfet_01v8 ad=0.165 pd=1.33 as=0.165 ps=1.33 w=1 l=0.5
X142 gnd.t267 commonsourceibias.t67 CSoutput.t138 gnd.t73 sky130_fd_pr__nfet_01v8 ad=1.155 pd=7.33 as=1.155 ps=7.33 w=7 l=1
X143 CSoutput.t153 a_n1986_8322.t1 sky130_fd_pr__cap_mim_m3_1 l=12 w=12
X144 CSoutput.t60 a_n6972_8799.t68 vdd.t175 vdd.t75 sky130_fd_pr__pfet_01v8 ad=1.32 pd=8.33 as=1.32 ps=8.33 w=8 l=0.5
X145 vdd.t227 a_n1986_13878.t50 a_n1986_8322.t18 vdd.t226 sky130_fd_pr__pfet_01v8 ad=1.485 pd=9.33 as=3.51 ps=18.78 w=9 l=0.5
X146 gnd.t184 gnd.t182 minus.t3 gnd.t183 sky130_fd_pr__nfet_01v8 ad=0.165 pd=1.33 as=0.165 ps=1.33 w=1 l=0.5
X147 CSoutput.t108 commonsourceibias.t68 gnd.t56 gnd.t32 sky130_fd_pr__nfet_01v8 ad=1.155 pd=7.33 as=1.155 ps=7.33 w=7 l=1
X148 a_n1986_13878.t10 minus.t13 a_n2903_n3924.t32 gnd.t265 sky130_fd_pr__nfet_01v8 ad=1.155 pd=7.33 as=1.155 ps=7.33 w=7 l=0.5
X149 CSoutput.t154 a_n1986_8322.t0 sky130_fd_pr__cap_mim_m3_1 l=12 w=12
X150 vdd.t74 a_n6972_8799.t69 CSoutput.t59 vdd.t12 sky130_fd_pr__pfet_01v8 ad=1.32 pd=8.33 as=1.32 ps=8.33 w=8 l=0.5
X151 CSoutput.t58 a_n6972_8799.t70 vdd.t28 vdd.t0 sky130_fd_pr__pfet_01v8 ad=1.32 pd=8.33 as=1.32 ps=8.33 w=8 l=0.5
X152 vdd.t241 a_n6972_8799.t71 CSoutput.t57 vdd.t195 sky130_fd_pr__pfet_01v8 ad=3.12 pd=16.78 as=1.32 ps=8.33 w=8 l=0.5
X153 gnd.t181 gnd.t178 gnd.t180 gnd.t179 sky130_fd_pr__nfet_01v8 ad=2.73 pd=14.78 as=0 ps=0 w=7 l=1
X154 a_n2903_n3924.t20 diffpairibias.t19 gnd.t242 gnd.t241 sky130_fd_pr__nfet_01v8 ad=2.73 pd=14.78 as=2.73 ps=14.78 w=7 l=1
X155 CSoutput.t124 commonsourceibias.t69 gnd.t99 gnd.t4 sky130_fd_pr__nfet_01v8 ad=1.155 pd=7.33 as=1.155 ps=7.33 w=7 l=1
X156 a_n1986_13878.t9 minus.t14 a_n2903_n3924.t31 gnd.t36 sky130_fd_pr__nfet_01v8 ad=1.155 pd=7.33 as=1.155 ps=7.33 w=7 l=0.5
X157 CSoutput.t135 commonsourceibias.t70 gnd.t254 gnd.t8 sky130_fd_pr__nfet_01v8 ad=1.155 pd=7.33 as=1.155 ps=7.33 w=7 l=1
X158 a_n2903_n3924.t18 diffpairibias.t20 gnd.t64 gnd.t63 sky130_fd_pr__nfet_01v8 ad=2.73 pd=14.78 as=2.73 ps=14.78 w=7 l=1
X159 vdd.t63 CSoutput.t155 output.t12 gnd.t223 sky130_fd_pr__nfet_01v8 ad=0.825 pd=5.33 as=0.825 ps=5.33 w=5 l=1
X160 vdd.t189 a_n6972_8799.t72 CSoutput.t56 vdd.t55 sky130_fd_pr__pfet_01v8 ad=1.32 pd=8.33 as=1.32 ps=8.33 w=8 l=0.5
X161 gnd.t29 commonsourceibias.t71 CSoutput.t103 gnd.t28 sky130_fd_pr__nfet_01v8 ad=2.73 pd=14.78 as=1.155 ps=7.33 w=7 l=1
X162 CSoutput.t137 commonsourceibias.t72 gnd.t262 gnd.t10 sky130_fd_pr__nfet_01v8 ad=1.155 pd=7.33 as=1.155 ps=7.33 w=7 l=1
X163 CSoutput.t55 a_n6972_8799.t73 vdd.t180 vdd.t50 sky130_fd_pr__pfet_01v8 ad=1.32 pd=8.33 as=1.32 ps=8.33 w=8 l=0.5
X164 CSoutput.t54 a_n6972_8799.t74 vdd.t181 vdd.t42 sky130_fd_pr__pfet_01v8 ad=1.32 pd=8.33 as=1.32 ps=8.33 w=8 l=0.5
X165 a_n1986_13878.t8 minus.t15 a_n2903_n3924.t30 gnd.t211 sky130_fd_pr__nfet_01v8 ad=1.155 pd=7.33 as=1.155 ps=7.33 w=7 l=0.5
X166 a_n1808_13878.t3 a_n1986_13878.t51 vdd.t225 vdd.t224 sky130_fd_pr__pfet_01v8 ad=1.485 pd=9.33 as=1.485 ps=9.33 w=9 l=0.5
X167 gnd.t177 gnd.t175 gnd.t176 gnd.t133 sky130_fd_pr__nfet_01v8 ad=2.73 pd=14.78 as=0 ps=0 w=7 l=1
X168 diffpairibias.t9 diffpairibias.t8 gnd.t1 gnd.t0 sky130_fd_pr__nfet_01v8 ad=2.73 pd=14.78 as=2.73 ps=14.78 w=7 l=1
X169 vdd.t120 vdd.t118 vdd.t119 vdd.t102 sky130_fd_pr__pfet_01v8 ad=3.12 pd=16.78 as=0 ps=0 w=8 l=0.5
X170 vdd.t223 a_n1986_13878.t52 a_n1808_13878.t2 vdd.t222 sky130_fd_pr__pfet_01v8 ad=1.485 pd=9.33 as=1.485 ps=9.33 w=9 l=0.5
X171 vdd.t13 a_n6972_8799.t75 CSoutput.t53 vdd.t12 sky130_fd_pr__pfet_01v8 ad=1.32 pd=8.33 as=1.32 ps=8.33 w=8 l=0.5
X172 CSoutput.t52 a_n6972_8799.t76 vdd.t192 vdd.t75 sky130_fd_pr__pfet_01v8 ad=1.32 pd=8.33 as=1.32 ps=8.33 w=8 l=0.5
X173 a_n2903_n3924.t10 plus.t12 a_n6972_8799.t7 gnd.t81 sky130_fd_pr__nfet_01v8 ad=1.155 pd=7.33 as=1.155 ps=7.33 w=7 l=0.5
X174 CSoutput.t119 commonsourceibias.t73 gnd.t86 gnd.t17 sky130_fd_pr__nfet_01v8 ad=1.155 pd=7.33 as=2.73 ps=14.78 w=7 l=1
X175 gnd.t27 commonsourceibias.t74 CSoutput.t102 gnd.t26 sky130_fd_pr__nfet_01v8 ad=1.155 pd=7.33 as=1.155 ps=7.33 w=7 l=1
X176 gnd.t174 gnd.t172 minus.t2 gnd.t173 sky130_fd_pr__nfet_01v8 ad=0.39 pd=2.78 as=0.165 ps=1.33 w=1 l=0.5
X177 plus.t1 gnd.t169 gnd.t171 gnd.t170 sky130_fd_pr__nfet_01v8 ad=0.165 pd=1.33 as=0.165 ps=1.33 w=1 l=0.5
X178 gnd.t168 gnd.t166 gnd.t167 gnd.t122 sky130_fd_pr__nfet_01v8 ad=2.73 pd=14.78 as=0 ps=0 w=7 l=0.5
X179 gnd.t165 gnd.t163 gnd.t164 gnd.t116 sky130_fd_pr__nfet_01v8 ad=2.73 pd=14.78 as=0 ps=0 w=7 l=0.5
X180 a_n2903_n3924.t9 plus.t13 a_n6972_8799.t24 gnd.t255 sky130_fd_pr__nfet_01v8 ad=1.155 pd=7.33 as=1.155 ps=7.33 w=7 l=0.5
X181 gnd.t263 commonsourceibias.t22 commonsourceibias.t23 gnd.t77 sky130_fd_pr__nfet_01v8 ad=1.155 pd=7.33 as=1.155 ps=7.33 w=7 l=1
X182 gnd.t16 commonsourceibias.t75 CSoutput.t4 gnd.t12 sky130_fd_pr__nfet_01v8 ad=2.73 pd=14.78 as=1.155 ps=7.33 w=7 l=1
X183 CSoutput.t51 a_n6972_8799.t77 vdd.t1 vdd.t0 sky130_fd_pr__pfet_01v8 ad=1.32 pd=8.33 as=1.32 ps=8.33 w=8 l=0.5
X184 vdd.t242 a_n6972_8799.t78 CSoutput.t50 vdd.t195 sky130_fd_pr__pfet_01v8 ad=3.12 pd=16.78 as=1.32 ps=8.33 w=8 l=0.5
X185 a_n1986_8322.t8 a_n1986_13878.t53 a_n6972_8799.t17 vdd.t197 sky130_fd_pr__pfet_01v8 ad=1.485 pd=9.33 as=1.485 ps=9.33 w=9 l=0.5
X186 gnd.t253 commonsourceibias.t76 CSoutput.t134 gnd.t6 sky130_fd_pr__nfet_01v8 ad=1.155 pd=7.33 as=1.155 ps=7.33 w=7 l=1
X187 vdd.t261 a_n6972_8799.t79 CSoutput.t49 vdd.t160 sky130_fd_pr__pfet_01v8 ad=1.32 pd=8.33 as=1.32 ps=8.33 w=8 l=0.5
X188 CSoutput.t48 a_n6972_8799.t80 vdd.t258 vdd.t46 sky130_fd_pr__pfet_01v8 ad=1.32 pd=8.33 as=1.32 ps=8.33 w=8 l=0.5
X189 CSoutput.t47 a_n6972_8799.t81 vdd.t80 vdd.t16 sky130_fd_pr__pfet_01v8 ad=1.32 pd=8.33 as=1.32 ps=8.33 w=8 l=0.5
X190 diffpairibias.t7 diffpairibias.t6 gnd.t250 gnd.t249 sky130_fd_pr__nfet_01v8 ad=2.73 pd=14.78 as=2.73 ps=14.78 w=7 l=1
X191 vdd.t56 a_n6972_8799.t82 CSoutput.t46 vdd.t55 sky130_fd_pr__pfet_01v8 ad=1.32 pd=8.33 as=1.32 ps=8.33 w=8 l=0.5
X192 vdd.t221 a_n1986_13878.t54 a_n1986_8322.t17 vdd.t220 sky130_fd_pr__pfet_01v8 ad=1.485 pd=9.33 as=3.51 ps=18.78 w=9 l=0.5
X193 vdd.t260 a_n6972_8799.t83 CSoutput.t45 vdd.t252 sky130_fd_pr__pfet_01v8 ad=1.32 pd=8.33 as=1.32 ps=8.33 w=8 l=0.5
X194 gnd.t7 commonsourceibias.t20 commonsourceibias.t21 gnd.t6 sky130_fd_pr__nfet_01v8 ad=1.155 pd=7.33 as=1.155 ps=7.33 w=7 l=1
X195 CSoutput.t120 commonsourceibias.t77 gnd.t87 gnd.t61 sky130_fd_pr__nfet_01v8 ad=1.155 pd=7.33 as=1.155 ps=7.33 w=7 l=1
X196 gnd.t159 gnd.t157 gnd.t158 gnd.t133 sky130_fd_pr__nfet_01v8 ad=2.73 pd=14.78 as=0 ps=0 w=7 l=1
X197 gnd.t162 gnd.t160 gnd.t161 gnd.t112 sky130_fd_pr__nfet_01v8 ad=2.73 pd=14.78 as=0 ps=0 w=7 l=1
X198 CSoutput.t126 commonsourceibias.t78 gnd.t102 gnd.t32 sky130_fd_pr__nfet_01v8 ad=1.155 pd=7.33 as=1.155 ps=7.33 w=7 l=1
X199 a_n1808_13878.t0 a_n1986_13878.t55 vdd.t219 vdd.t218 sky130_fd_pr__pfet_01v8 ad=3.51 pd=18.78 as=1.485 ps=9.33 w=9 l=0.5
X200 vdd.t18 a_n6972_8799.t84 CSoutput.t44 vdd.t8 sky130_fd_pr__pfet_01v8 ad=1.32 pd=8.33 as=1.32 ps=8.33 w=8 l=0.5
X201 CSoutput.t43 a_n6972_8799.t85 vdd.t190 vdd.t2 sky130_fd_pr__pfet_01v8 ad=1.32 pd=8.33 as=1.32 ps=8.33 w=8 l=0.5
X202 CSoutput.t42 a_n6972_8799.t86 vdd.t51 vdd.t50 sky130_fd_pr__pfet_01v8 ad=1.32 pd=8.33 as=1.32 ps=8.33 w=8 l=0.5
X203 gnd.t156 gnd.t154 minus.t1 gnd.t155 sky130_fd_pr__nfet_01v8 ad=0.165 pd=1.33 as=0.39 ps=2.78 w=1 l=0.5
X204 gnd.t44 commonsourceibias.t18 commonsourceibias.t19 gnd.t43 sky130_fd_pr__nfet_01v8 ad=1.155 pd=7.33 as=1.155 ps=7.33 w=7 l=1
X205 vdd.t117 vdd.t115 vdd.t116 vdd.t102 sky130_fd_pr__pfet_01v8 ad=3.12 pd=16.78 as=0 ps=0 w=8 l=0.5
X206 gnd.t153 gnd.t150 gnd.t152 gnd.t151 sky130_fd_pr__nfet_01v8 ad=2.73 pd=14.78 as=0 ps=0 w=7 l=1
X207 a_n1986_8322.t7 a_n1986_13878.t56 a_n6972_8799.t16 vdd.t217 sky130_fd_pr__pfet_01v8 ad=1.485 pd=9.33 as=1.485 ps=9.33 w=9 l=0.5
X208 vdd.t216 a_n1986_13878.t57 a_n1986_8322.t16 vdd.t215 sky130_fd_pr__pfet_01v8 ad=1.485 pd=9.33 as=1.485 ps=9.33 w=9 l=0.5
X209 CSoutput.t41 a_n6972_8799.t87 vdd.t173 vdd.t50 sky130_fd_pr__pfet_01v8 ad=1.32 pd=8.33 as=1.32 ps=8.33 w=8 l=0.5
X210 CSoutput.t107 commonsourceibias.t79 gnd.t55 gnd.t34 sky130_fd_pr__nfet_01v8 ad=1.155 pd=7.33 as=1.155 ps=7.33 w=7 l=1
X211 a_n2903_n3924.t21 diffpairibias.t21 gnd.t245 gnd.t244 sky130_fd_pr__nfet_01v8 ad=2.73 pd=14.78 as=2.73 ps=14.78 w=7 l=1
X212 output.t11 CSoutput.t156 vdd.t64 gnd.t222 sky130_fd_pr__nfet_01v8 ad=0.825 pd=5.33 as=0.825 ps=5.33 w=5 l=1
X213 CSoutput.t40 a_n6972_8799.t88 vdd.t73 vdd.t4 sky130_fd_pr__pfet_01v8 ad=1.32 pd=8.33 as=1.32 ps=8.33 w=8 l=0.5
X214 vdd.t114 vdd.t112 vdd.t113 vdd.t95 sky130_fd_pr__pfet_01v8 ad=3.12 pd=16.78 as=0 ps=0 w=8 l=0.5
X215 vdd.t251 a_n6972_8799.t89 CSoutput.t39 vdd.t29 sky130_fd_pr__pfet_01v8 ad=1.32 pd=8.33 as=1.32 ps=8.33 w=8 l=0.5
X216 CSoutput.t129 commonsourceibias.t80 gnd.t233 gnd.t8 sky130_fd_pr__nfet_01v8 ad=1.155 pd=7.33 as=1.155 ps=7.33 w=7 l=1
X217 vdd.t27 a_n6972_8799.t90 CSoutput.t38 vdd.t10 sky130_fd_pr__pfet_01v8 ad=1.32 pd=8.33 as=1.32 ps=8.33 w=8 l=0.5
X218 vdd.t79 a_n6972_8799.t91 CSoutput.t37 vdd.t31 sky130_fd_pr__pfet_01v8 ad=1.32 pd=8.33 as=1.32 ps=8.33 w=8 l=0.5
X219 CSoutput.t157 a_n1986_8322.t1 sky130_fd_pr__cap_mim_m3_1 l=12 w=12
X220 CSoutput.t1 commonsourceibias.t81 gnd.t11 gnd.t10 sky130_fd_pr__nfet_01v8 ad=1.155 pd=7.33 as=1.155 ps=7.33 w=7 l=1
X221 gnd.t95 commonsourceibias.t82 CSoutput.t123 gnd.t43 sky130_fd_pr__nfet_01v8 ad=1.155 pd=7.33 as=1.155 ps=7.33 w=7 l=1
X222 output.t2 outputibias.t9 gnd.t232 gnd.t231 sky130_fd_pr__nfet_01v8 ad=2.34 pd=12.78 as=2.34 ps=12.78 w=6 l=2
X223 output.t10 CSoutput.t158 vdd.t165 gnd.t221 sky130_fd_pr__nfet_01v8 ad=0.825 pd=5.33 as=0.825 ps=5.33 w=5 l=1
X224 vdd.t111 vdd.t108 vdd.t110 vdd.t109 sky130_fd_pr__pfet_01v8 ad=3.51 pd=18.78 as=0 ps=0 w=9 l=0.5
X225 a_n2903_n3924.t8 plus.t14 a_n6972_8799.t0 gnd.t19 sky130_fd_pr__nfet_01v8 ad=1.155 pd=7.33 as=1.155 ps=7.33 w=7 l=0.5
X226 gnd.t149 gnd.t147 gnd.t148 gnd.t129 sky130_fd_pr__nfet_01v8 ad=2.73 pd=14.78 as=0 ps=0 w=7 l=1
X227 CSoutput.t36 a_n6972_8799.t92 vdd.t17 vdd.t16 sky130_fd_pr__pfet_01v8 ad=1.32 pd=8.33 as=1.32 ps=8.33 w=8 l=0.5
X228 a_n1808_13878.t12 a_n1986_13878.t33 a_n1986_13878.t34 vdd.t209 sky130_fd_pr__pfet_01v8 ad=1.485 pd=9.33 as=1.485 ps=9.33 w=9 l=0.5
X229 a_n2903_n3924.t29 minus.t16 a_n1986_13878.t7 gnd.t93 sky130_fd_pr__nfet_01v8 ad=1.155 pd=7.33 as=1.155 ps=7.33 w=7 l=0.5
X230 a_n6972_8799.t2 plus.t15 a_n2903_n3924.t7 gnd.t37 sky130_fd_pr__nfet_01v8 ad=1.155 pd=7.33 as=1.155 ps=7.33 w=7 l=0.5
X231 a_n1986_8322.t6 a_n1986_13878.t58 a_n6972_8799.t18 vdd.t214 sky130_fd_pr__pfet_01v8 ad=1.485 pd=9.33 as=1.485 ps=9.33 w=9 l=0.5
X232 gnd.t146 gnd.t144 gnd.t145 gnd.t129 sky130_fd_pr__nfet_01v8 ad=2.73 pd=14.78 as=0 ps=0 w=7 l=1
X233 output.t1 outputibias.t10 gnd.t261 gnd.t260 sky130_fd_pr__nfet_01v8 ad=2.34 pd=12.78 as=2.34 ps=12.78 w=6 l=2
X234 diffpairibias.t5 diffpairibias.t4 gnd.t97 gnd.t96 sky130_fd_pr__nfet_01v8 ad=2.73 pd=14.78 as=2.73 ps=14.78 w=7 l=1
X235 a_n6972_8799.t5 plus.t16 a_n2903_n3924.t6 gnd.t68 sky130_fd_pr__nfet_01v8 ad=1.155 pd=7.33 as=2.73 ps=14.78 w=7 l=0.5
X236 a_n2903_n3924.t28 minus.t17 a_n1986_13878.t6 gnd.t264 sky130_fd_pr__nfet_01v8 ad=2.73 pd=14.78 as=1.155 ps=7.33 w=7 l=0.5
X237 CSoutput.t35 a_n6972_8799.t93 vdd.t158 vdd.t21 sky130_fd_pr__pfet_01v8 ad=1.32 pd=8.33 as=1.32 ps=8.33 w=8 l=0.5
X238 vdd.t11 a_n6972_8799.t94 CSoutput.t34 vdd.t10 sky130_fd_pr__pfet_01v8 ad=1.32 pd=8.33 as=1.32 ps=8.33 w=8 l=0.5
X239 gnd.t282 commonsourceibias.t83 CSoutput.t143 gnd.t26 sky130_fd_pr__nfet_01v8 ad=1.155 pd=7.33 as=1.155 ps=7.33 w=7 l=1
X240 CSoutput.t128 commonsourceibias.t84 gnd.t214 gnd.t17 sky130_fd_pr__nfet_01v8 ad=1.155 pd=7.33 as=2.73 ps=14.78 w=7 l=1
X241 vdd.t9 a_n6972_8799.t95 CSoutput.t33 vdd.t8 sky130_fd_pr__pfet_01v8 ad=1.32 pd=8.33 as=1.32 ps=8.33 w=8 l=0.5
X242 CSoutput.t32 a_n6972_8799.t96 vdd.t159 vdd.t2 sky130_fd_pr__pfet_01v8 ad=1.32 pd=8.33 as=1.32 ps=8.33 w=8 l=0.5
X243 a_n1986_8322.t15 a_n1986_13878.t59 vdd.t213 vdd.t212 sky130_fd_pr__pfet_01v8 ad=3.51 pd=18.78 as=1.485 ps=9.33 w=9 l=0.5
X244 gnd.t256 commonsourceibias.t85 CSoutput.t136 gnd.t77 sky130_fd_pr__nfet_01v8 ad=1.155 pd=7.33 as=1.155 ps=7.33 w=7 l=1
X245 gnd.t103 commonsourceibias.t16 commonsourceibias.t17 gnd.t12 sky130_fd_pr__nfet_01v8 ad=2.73 pd=14.78 as=1.155 ps=7.33 w=7 l=1
X246 output.t9 CSoutput.t159 vdd.t166 gnd.t220 sky130_fd_pr__nfet_01v8 ad=0.825 pd=5.33 as=0.825 ps=5.33 w=5 l=1
X247 a_n2903_n3924.t5 plus.t17 a_n6972_8799.t10 gnd.t240 sky130_fd_pr__nfet_01v8 ad=1.155 pd=7.33 as=1.155 ps=7.33 w=7 l=0.5
X248 gnd.t143 gnd.t140 gnd.t142 gnd.t141 sky130_fd_pr__nfet_01v8 ad=2.34 pd=12.78 as=0 ps=0 w=6 l=2
X249 vdd.t211 a_n1986_13878.t60 a_n1808_13878.t6 vdd.t210 sky130_fd_pr__pfet_01v8 ad=1.485 pd=9.33 as=3.51 ps=18.78 w=9 l=0.5
X250 gnd.t139 gnd.t136 gnd.t138 gnd.t137 sky130_fd_pr__nfet_01v8 ad=1.95 pd=10.78 as=0 ps=0 w=5 l=1
X251 CSoutput.t31 a_n6972_8799.t97 vdd.t5 vdd.t4 sky130_fd_pr__pfet_01v8 ad=1.32 pd=8.33 as=1.32 ps=8.33 w=8 l=0.5
X252 vdd.t107 vdd.t105 vdd.t106 vdd.t95 sky130_fd_pr__pfet_01v8 ad=3.12 pd=16.78 as=0 ps=0 w=8 l=0.5