* NGSPICE file created from opamp155.ext - technology: sky130A

.subckt opamp155 gnd CSoutput output vdd plus minus commonsourceibias outputibias
+ diffpairibias
X0 gnd.t224 commonsourceibias.t14 commonsourceibias.t15 gnd.t147 sky130_fd_pr__nfet_01v8 ad=1.155 pd=7.33 as=1.155 ps=7.33 w=7 l=1
X1 a_n8300_8799.t44 plus.t5 a_n3827_n3924.t38 gnd.t4 sky130_fd_pr__nfet_01v8 ad=1.155 pd=7.33 as=1.155 ps=7.33 w=7 l=0.7
X2 a_n2804_13878.t29 a_n2982_13878.t45 a_n2982_13878.t46 vdd.t230 sky130_fd_pr__pfet_01v8 ad=1.485 pd=9.33 as=1.485 ps=9.33 w=9 l=0.5
X3 a_n2804_13878.t4 a_n2982_13878.t72 vdd.t243 vdd.t242 sky130_fd_pr__pfet_01v8 ad=1.485 pd=9.33 as=1.485 ps=9.33 w=9 l=0.5
X4 gnd.t355 gnd.t353 gnd.t354 gnd.t309 sky130_fd_pr__nfet_01v8 ad=2.73 pd=14.78 as=0 ps=0 w=7 l=0.7
X5 CSoutput.t95 commonsourceibias.t64 gnd.t223 gnd.t120 sky130_fd_pr__nfet_01v8 ad=1.155 pd=7.33 as=2.73 ps=14.78 w=7 l=1
X6 vdd.t187 a_n8300_8799.t48 CSoutput.t167 vdd.t151 sky130_fd_pr__pfet_01v8 ad=1.32 pd=8.33 as=1.32 ps=8.33 w=8 l=0.5
X7 commonsourceibias.t13 commonsourceibias.t12 gnd.t222 gnd.t94 sky130_fd_pr__nfet_01v8 ad=1.155 pd=7.33 as=1.155 ps=7.33 w=7 l=1
X8 gnd.t221 commonsourceibias.t65 CSoutput.t94 gnd.t84 sky130_fd_pr__nfet_01v8 ad=1.155 pd=7.33 as=1.155 ps=7.33 w=7 l=1
X9 gnd.t352 gnd.t350 minus.t4 gnd.t351 sky130_fd_pr__nfet_01v8 ad=0.165 pd=1.33 as=0.165 ps=1.33 w=1 l=0.5
X10 CSoutput.t166 a_n8300_8799.t49 vdd.t186 vdd.t104 sky130_fd_pr__pfet_01v8 ad=1.32 pd=8.33 as=3.12 ps=16.78 w=8 l=0.5
X11 gnd.t220 commonsourceibias.t10 commonsourceibias.t11 gnd.t89 sky130_fd_pr__nfet_01v8 ad=1.155 pd=7.33 as=1.155 ps=7.33 w=7 l=1
X12 a_n3827_n3924.t1 diffpairibias.t20 gnd.t3 gnd.t2 sky130_fd_pr__nfet_01v8 ad=2.73 pd=14.78 as=2.73 ps=14.78 w=7 l=1
X13 a_n3827_n3924.t33 plus.t6 a_n8300_8799.t43 gnd.t60 sky130_fd_pr__nfet_01v8 ad=1.155 pd=7.33 as=1.155 ps=7.33 w=7 l=0.7
X14 gnd.t219 commonsourceibias.t8 commonsourceibias.t9 gnd.t65 sky130_fd_pr__nfet_01v8 ad=1.155 pd=7.33 as=1.155 ps=7.33 w=7 l=1
X15 a_n3827_n3924.t18 minus.t5 a_n2982_13878.t15 gnd.t56 sky130_fd_pr__nfet_01v8 ad=1.155 pd=7.33 as=1.155 ps=7.33 w=7 l=0.7
X16 a_n2982_8322.t37 a_n2982_13878.t73 a_n8300_8799.t6 vdd.t240 sky130_fd_pr__pfet_01v8 ad=1.485 pd=9.33 as=1.485 ps=9.33 w=9 l=0.5
X17 commonsourceibias.t7 commonsourceibias.t6 gnd.t218 gnd.t111 sky130_fd_pr__nfet_01v8 ad=1.155 pd=7.33 as=1.155 ps=7.33 w=7 l=1
X18 gnd.t217 commonsourceibias.t66 CSoutput.t93 gnd.t139 sky130_fd_pr__nfet_01v8 ad=1.155 pd=7.33 as=1.155 ps=7.33 w=7 l=1
X19 CSoutput.t165 a_n8300_8799.t50 vdd.t185 vdd.t124 sky130_fd_pr__pfet_01v8 ad=1.32 pd=8.33 as=1.32 ps=8.33 w=8 l=0.5
X20 vdd.t182 a_n8300_8799.t51 CSoutput.t164 vdd.t144 sky130_fd_pr__pfet_01v8 ad=3.12 pd=16.78 as=1.32 ps=8.33 w=8 l=0.5
X21 a_n2982_13878.t3 minus.t6 a_n3827_n3924.t5 gnd.t7 sky130_fd_pr__nfet_01v8 ad=1.155 pd=7.33 as=1.155 ps=7.33 w=7 l=0.7
X22 gnd.t349 gnd.t347 gnd.t348 gnd.t273 sky130_fd_pr__nfet_01v8 ad=2.73 pd=14.78 as=0 ps=0 w=7 l=1
X23 gnd.t346 gnd.t343 gnd.t345 gnd.t344 sky130_fd_pr__nfet_01v8 ad=2.34 pd=12.78 as=0 ps=0 w=6 l=2
X24 a_n8300_8799.t0 a_n2982_13878.t74 a_n2982_8322.t36 vdd.t226 sky130_fd_pr__pfet_01v8 ad=1.485 pd=9.33 as=1.485 ps=9.33 w=9 l=0.5
X25 vdd.t184 a_n8300_8799.t52 CSoutput.t163 vdd.t96 sky130_fd_pr__pfet_01v8 ad=1.32 pd=8.33 as=1.32 ps=8.33 w=8 l=0.5
X26 a_n2982_13878.t9 minus.t7 a_n3827_n3924.t11 gnd.t28 sky130_fd_pr__nfet_01v8 ad=1.155 pd=7.33 as=1.155 ps=7.33 w=7 l=0.7
X27 vdd.t183 a_n8300_8799.t53 CSoutput.t162 vdd.t160 sky130_fd_pr__pfet_01v8 ad=1.32 pd=8.33 as=1.32 ps=8.33 w=8 l=0.5
X28 commonsourceibias.t61 commonsourceibias.t60 gnd.t216 gnd.t145 sky130_fd_pr__nfet_01v8 ad=1.155 pd=7.33 as=1.155 ps=7.33 w=7 l=1
X29 a_n8300_8799.t9 a_n2982_13878.t75 a_n2982_8322.t35 vdd.t189 sky130_fd_pr__pfet_01v8 ad=1.485 pd=9.33 as=3.51 ps=18.78 w=9 l=0.5
X30 gnd.t215 commonsourceibias.t67 CSoutput.t92 gnd.t77 sky130_fd_pr__nfet_01v8 ad=1.155 pd=7.33 as=1.155 ps=7.33 w=7 l=1
X31 CSoutput.t91 commonsourceibias.t68 gnd.t214 gnd.t100 sky130_fd_pr__nfet_01v8 ad=1.155 pd=7.33 as=1.155 ps=7.33 w=7 l=1
X32 a_n3827_n3924.t14 minus.t8 a_n2982_13878.t12 gnd.t33 sky130_fd_pr__nfet_01v8 ad=2.73 pd=14.78 as=1.155 ps=7.33 w=7 l=0.7
X33 gnd.t213 commonsourceibias.t58 commonsourceibias.t59 gnd.t139 sky130_fd_pr__nfet_01v8 ad=1.155 pd=7.33 as=1.155 ps=7.33 w=7 l=1
X34 CSoutput.t168 a_n2982_8322.t5 sky130_fd_pr__cap_mim_m3_1 l=12 w=12
X35 CSoutput.t90 commonsourceibias.t69 gnd.t209 gnd.t150 sky130_fd_pr__nfet_01v8 ad=1.155 pd=7.33 as=1.155 ps=7.33 w=7 l=1
X36 a_n3827_n3924.t57 diffpairibias.t21 gnd.t375 gnd.t374 sky130_fd_pr__nfet_01v8 ad=2.73 pd=14.78 as=2.73 ps=14.78 w=7 l=1
X37 commonsourceibias.t57 commonsourceibias.t56 gnd.t212 gnd.t71 sky130_fd_pr__nfet_01v8 ad=1.155 pd=7.33 as=1.155 ps=7.33 w=7 l=1
X38 CSoutput.t161 a_n8300_8799.t54 vdd.t181 vdd.t133 sky130_fd_pr__pfet_01v8 ad=1.32 pd=8.33 as=1.32 ps=8.33 w=8 l=0.5
X39 vdd.t171 a_n8300_8799.t55 CSoutput.t160 vdd.t96 sky130_fd_pr__pfet_01v8 ad=1.32 pd=8.33 as=1.32 ps=8.33 w=8 l=0.5
X40 CSoutput.t89 commonsourceibias.t70 gnd.t211 gnd.t150 sky130_fd_pr__nfet_01v8 ad=1.155 pd=7.33 as=1.155 ps=7.33 w=7 l=1
X41 a_n3827_n3924.t48 plus.t7 a_n8300_8799.t42 gnd.t14 sky130_fd_pr__nfet_01v8 ad=1.155 pd=7.33 as=1.155 ps=7.33 w=7 l=0.7
X42 gnd.t210 commonsourceibias.t54 commonsourceibias.t55 gnd.t69 sky130_fd_pr__nfet_01v8 ad=1.155 pd=7.33 as=1.155 ps=7.33 w=7 l=1
X43 CSoutput.t88 commonsourceibias.t71 gnd.t208 gnd.t75 sky130_fd_pr__nfet_01v8 ad=1.155 pd=7.33 as=2.73 ps=14.78 w=7 l=1
X44 a_n2804_13878.t28 a_n2982_13878.t51 a_n2982_13878.t52 vdd.t197 sky130_fd_pr__pfet_01v8 ad=1.485 pd=9.33 as=1.485 ps=9.33 w=9 l=0.5
X45 a_n8300_8799.t41 plus.t8 a_n3827_n3924.t39 gnd.t235 sky130_fd_pr__nfet_01v8 ad=1.155 pd=7.33 as=2.73 ps=14.78 w=7 l=0.7
X46 a_n2982_13878.t44 a_n2982_13878.t43 a_n2804_13878.t27 vdd.t210 sky130_fd_pr__pfet_01v8 ad=1.485 pd=9.33 as=1.485 ps=9.33 w=9 l=0.5
X47 output.t3 outputibias.t8 gnd.t365 gnd.t364 sky130_fd_pr__nfet_01v8 ad=2.34 pd=12.78 as=2.34 ps=12.78 w=6 l=2
X48 CSoutput.t169 a_n2982_8322.t4 sky130_fd_pr__cap_mim_m3_1 l=12 w=12
X49 a_n8300_8799.t40 plus.t9 a_n3827_n3924.t35 gnd.t35 sky130_fd_pr__nfet_01v8 ad=1.155 pd=7.33 as=1.155 ps=7.33 w=7 l=0.7
X50 CSoutput.t159 a_n8300_8799.t56 vdd.t180 vdd.t124 sky130_fd_pr__pfet_01v8 ad=1.32 pd=8.33 as=1.32 ps=8.33 w=8 l=0.5
X51 vdd.t77 vdd.t75 vdd.t76 vdd.t52 sky130_fd_pr__pfet_01v8 ad=3.51 pd=18.78 as=0 ps=0 w=9 l=0.5
X52 vdd.t170 a_n8300_8799.t57 CSoutput.t158 vdd.t144 sky130_fd_pr__pfet_01v8 ad=3.12 pd=16.78 as=1.32 ps=8.33 w=8 l=0.5
X53 vdd.t80 CSoutput.t170 output.t19 gnd.t23 sky130_fd_pr__nfet_01v8 ad=0.825 pd=5.33 as=0.825 ps=5.33 w=5 l=1
X54 diffpairibias.t19 diffpairibias.t18 gnd.t10 gnd.t9 sky130_fd_pr__nfet_01v8 ad=2.73 pd=14.78 as=2.73 ps=14.78 w=7 l=1
X55 CSoutput.t87 commonsourceibias.t72 gnd.t207 gnd.t118 sky130_fd_pr__nfet_01v8 ad=1.155 pd=7.33 as=1.155 ps=7.33 w=7 l=1
X56 a_n3827_n3924.t42 plus.t10 a_n8300_8799.t39 gnd.t34 sky130_fd_pr__nfet_01v8 ad=1.155 pd=7.33 as=1.155 ps=7.33 w=7 l=0.7
X57 a_n2982_13878.t11 minus.t9 a_n3827_n3924.t13 gnd.t32 sky130_fd_pr__nfet_01v8 ad=1.155 pd=7.33 as=1.155 ps=7.33 w=7 l=0.7
X58 a_n2982_13878.t50 a_n2982_13878.t49 a_n2804_13878.t26 vdd.t225 sky130_fd_pr__pfet_01v8 ad=1.485 pd=9.33 as=1.485 ps=9.33 w=9 l=0.5
X59 a_n8300_8799.t17 a_n2982_13878.t76 a_n2982_8322.t34 vdd.t220 sky130_fd_pr__pfet_01v8 ad=1.485 pd=9.33 as=1.485 ps=9.33 w=9 l=0.5
X60 CSoutput.t86 commonsourceibias.t73 gnd.t205 gnd.t160 sky130_fd_pr__nfet_01v8 ad=1.155 pd=7.33 as=1.155 ps=7.33 w=7 l=1
X61 CSoutput.t85 commonsourceibias.t74 gnd.t206 gnd.t134 sky130_fd_pr__nfet_01v8 ad=1.155 pd=7.33 as=1.155 ps=7.33 w=7 l=1
X62 CSoutput.t157 a_n8300_8799.t58 vdd.t179 vdd.t153 sky130_fd_pr__pfet_01v8 ad=1.32 pd=8.33 as=1.32 ps=8.33 w=8 l=0.5
X63 commonsourceibias.t53 commonsourceibias.t52 gnd.t204 gnd.t120 sky130_fd_pr__nfet_01v8 ad=1.155 pd=7.33 as=2.73 ps=14.78 w=7 l=1
X64 gnd.t342 gnd.t340 plus.t4 gnd.t341 sky130_fd_pr__nfet_01v8 ad=0.39 pd=2.78 as=0.165 ps=1.33 w=1 l=0.5
X65 a_n2982_13878.t54 a_n2982_13878.t53 a_n2804_13878.t25 vdd.t241 sky130_fd_pr__pfet_01v8 ad=1.485 pd=9.33 as=1.485 ps=9.33 w=9 l=0.5
X66 gnd.t339 gnd.t337 gnd.t338 gnd.t240 sky130_fd_pr__nfet_01v8 ad=2.73 pd=14.78 as=0 ps=0 w=7 l=1
X67 vdd.t178 a_n8300_8799.t59 CSoutput.t156 vdd.t106 sky130_fd_pr__pfet_01v8 ad=1.32 pd=8.33 as=1.32 ps=8.33 w=8 l=0.5
X68 vdd.t177 a_n8300_8799.t60 CSoutput.t155 vdd.t160 sky130_fd_pr__pfet_01v8 ad=1.32 pd=8.33 as=1.32 ps=8.33 w=8 l=0.5
X69 a_n8300_8799.t1 a_n2982_13878.t77 a_n2982_8322.t33 vdd.t218 sky130_fd_pr__pfet_01v8 ad=1.485 pd=9.33 as=1.485 ps=9.33 w=9 l=0.5
X70 diffpairibias.t17 diffpairibias.t16 gnd.t51 gnd.t50 sky130_fd_pr__nfet_01v8 ad=2.73 pd=14.78 as=2.73 ps=14.78 w=7 l=1
X71 CSoutput.t154 a_n8300_8799.t61 vdd.t176 vdd.t109 sky130_fd_pr__pfet_01v8 ad=1.32 pd=8.33 as=1.32 ps=8.33 w=8 l=0.5
X72 gnd.t336 gnd.t334 gnd.t335 gnd.t240 sky130_fd_pr__nfet_01v8 ad=2.73 pd=14.78 as=0 ps=0 w=7 l=1
X73 a_n8300_8799.t12 a_n2982_13878.t78 a_n2982_8322.t32 vdd.t233 sky130_fd_pr__pfet_01v8 ad=1.485 pd=9.33 as=1.485 ps=9.33 w=9 l=0.5
X74 a_n2982_8322.t31 a_n2982_13878.t79 a_n8300_8799.t18 vdd.t241 sky130_fd_pr__pfet_01v8 ad=1.485 pd=9.33 as=1.485 ps=9.33 w=9 l=0.5
X75 CSoutput.t84 commonsourceibias.t75 gnd.t203 gnd.t134 sky130_fd_pr__nfet_01v8 ad=1.155 pd=7.33 as=1.155 ps=7.33 w=7 l=1
X76 vdd.t74 vdd.t72 vdd.t73 vdd.t39 sky130_fd_pr__pfet_01v8 ad=3.12 pd=16.78 as=0 ps=0 w=8 l=0.5
X77 CSoutput.t153 a_n8300_8799.t62 vdd.t173 vdd.t136 sky130_fd_pr__pfet_01v8 ad=1.32 pd=8.33 as=1.32 ps=8.33 w=8 l=0.5
X78 gnd.t202 commonsourceibias.t76 CSoutput.t83 gnd.t114 sky130_fd_pr__nfet_01v8 ad=1.155 pd=7.33 as=1.155 ps=7.33 w=7 l=1
X79 gnd.t333 gnd.t331 gnd.t332 gnd.t255 sky130_fd_pr__nfet_01v8 ad=2.73 pd=14.78 as=0 ps=0 w=7 l=0.7
X80 gnd.t330 gnd.t327 gnd.t329 gnd.t328 sky130_fd_pr__nfet_01v8 ad=2.34 pd=12.78 as=0 ps=0 w=6 l=2
X81 gnd.t326 gnd.t324 plus.t3 gnd.t325 sky130_fd_pr__nfet_01v8 ad=0.165 pd=1.33 as=0.165 ps=1.33 w=1 l=0.5
X82 CSoutput.t82 commonsourceibias.t77 gnd.t201 gnd.t132 sky130_fd_pr__nfet_01v8 ad=1.155 pd=7.33 as=1.155 ps=7.33 w=7 l=1
X83 gnd.t200 commonsourceibias.t78 CSoutput.t81 gnd.t96 sky130_fd_pr__nfet_01v8 ad=2.73 pd=14.78 as=1.155 ps=7.33 w=7 l=1
X84 a_n3827_n3924.t30 plus.t11 a_n8300_8799.t38 gnd.t44 sky130_fd_pr__nfet_01v8 ad=1.155 pd=7.33 as=1.155 ps=7.33 w=7 l=0.7
X85 gnd.t323 gnd.t321 gnd.t322 gnd.t273 sky130_fd_pr__nfet_01v8 ad=2.73 pd=14.78 as=0 ps=0 w=7 l=1
X86 a_n3827_n3924.t17 diffpairibias.t22 gnd.t55 gnd.t54 sky130_fd_pr__nfet_01v8 ad=2.73 pd=14.78 as=2.73 ps=14.78 w=7 l=1
X87 vdd.t175 a_n8300_8799.t63 CSoutput.t152 vdd.t142 sky130_fd_pr__pfet_01v8 ad=1.32 pd=8.33 as=1.32 ps=8.33 w=8 l=0.5
X88 vdd.t174 a_n8300_8799.t64 CSoutput.t151 vdd.t164 sky130_fd_pr__pfet_01v8 ad=1.32 pd=8.33 as=1.32 ps=8.33 w=8 l=0.5
X89 CSoutput.t80 commonsourceibias.t79 gnd.t199 gnd.t82 sky130_fd_pr__nfet_01v8 ad=1.155 pd=7.33 as=1.155 ps=7.33 w=7 l=1
X90 a_n2982_13878.t68 a_n2982_13878.t67 a_n2804_13878.t24 vdd.t240 sky130_fd_pr__pfet_01v8 ad=1.485 pd=9.33 as=1.485 ps=9.33 w=9 l=0.5
X91 vdd.t172 a_n8300_8799.t65 CSoutput.t150 vdd.t149 sky130_fd_pr__pfet_01v8 ad=1.32 pd=8.33 as=1.32 ps=8.33 w=8 l=0.5
X92 a_n8300_8799.t5 a_n2982_13878.t80 a_n2982_8322.t30 vdd.t229 sky130_fd_pr__pfet_01v8 ad=1.485 pd=9.33 as=1.485 ps=9.33 w=9 l=0.5
X93 a_n2982_13878.t30 a_n2982_13878.t29 a_n2804_13878.t23 vdd.t192 sky130_fd_pr__pfet_01v8 ad=3.51 pd=18.78 as=1.485 ps=9.33 w=9 l=0.5
X94 outputibias.t7 outputibias.t6 gnd.t30 gnd.t29 sky130_fd_pr__nfet_01v8 ad=2.34 pd=12.78 as=2.34 ps=12.78 w=6 l=2
X95 commonsourceibias.t27 commonsourceibias.t26 gnd.t198 gnd.t100 sky130_fd_pr__nfet_01v8 ad=1.155 pd=7.33 as=1.155 ps=7.33 w=7 l=1
X96 gnd.t197 commonsourceibias.t80 CSoutput.t79 gnd.t67 sky130_fd_pr__nfet_01v8 ad=1.155 pd=7.33 as=1.155 ps=7.33 w=7 l=1
X97 gnd.t320 gnd.t318 gnd.t319 gnd.t244 sky130_fd_pr__nfet_01v8 ad=2.73 pd=14.78 as=0 ps=0 w=7 l=1
X98 CSoutput.t78 commonsourceibias.t81 gnd.t196 gnd.t94 sky130_fd_pr__nfet_01v8 ad=1.155 pd=7.33 as=1.155 ps=7.33 w=7 l=1
X99 gnd.t195 commonsourceibias.t24 commonsourceibias.t25 gnd.t98 sky130_fd_pr__nfet_01v8 ad=1.155 pd=7.33 as=1.155 ps=7.33 w=7 l=1
X100 CSoutput.t77 commonsourceibias.t82 gnd.t194 gnd.t150 sky130_fd_pr__nfet_01v8 ad=1.155 pd=7.33 as=1.155 ps=7.33 w=7 l=1
X101 diffpairibias.t15 diffpairibias.t14 gnd.t27 gnd.t26 sky130_fd_pr__nfet_01v8 ad=2.73 pd=14.78 as=2.73 ps=14.78 w=7 l=1
X102 a_n2982_13878.t10 minus.t10 a_n3827_n3924.t12 gnd.t31 sky130_fd_pr__nfet_01v8 ad=1.155 pd=7.33 as=1.155 ps=7.33 w=7 l=0.7
X103 vdd.t71 vdd.t69 vdd.t70 vdd.t59 sky130_fd_pr__pfet_01v8 ad=3.51 pd=18.78 as=0 ps=0 w=9 l=0.5
X104 CSoutput.t149 a_n8300_8799.t66 vdd.t169 vdd.t109 sky130_fd_pr__pfet_01v8 ad=1.32 pd=8.33 as=1.32 ps=8.33 w=8 l=0.5
X105 vdd.t68 vdd.t65 vdd.t67 vdd.t66 sky130_fd_pr__pfet_01v8 ad=3.51 pd=18.78 as=0 ps=0 w=9 l=0.5
X106 gnd.t193 commonsourceibias.t83 CSoutput.t76 gnd.t104 sky130_fd_pr__nfet_01v8 ad=2.73 pd=14.78 as=1.155 ps=7.33 w=7 l=1
X107 a_n2804_13878.t22 a_n2982_13878.t57 a_n2982_13878.t58 vdd.t202 sky130_fd_pr__pfet_01v8 ad=1.485 pd=9.33 as=3.51 ps=18.78 w=9 l=0.5
X108 a_n3827_n3924.t53 minus.t11 a_n2982_13878.t71 gnd.t20 sky130_fd_pr__nfet_01v8 ad=1.155 pd=7.33 as=1.155 ps=7.33 w=7 l=0.7
X109 CSoutput.t148 a_n8300_8799.t67 vdd.t168 vdd.t92 sky130_fd_pr__pfet_01v8 ad=1.32 pd=8.33 as=1.32 ps=8.33 w=8 l=0.5
X110 vdd.t167 a_n8300_8799.t68 CSoutput.t147 vdd.t164 sky130_fd_pr__pfet_01v8 ad=1.32 pd=8.33 as=1.32 ps=8.33 w=8 l=0.5
X111 vdd.t239 a_n2982_13878.t81 a_n2982_8322.t13 vdd.t238 sky130_fd_pr__pfet_01v8 ad=1.485 pd=9.33 as=1.485 ps=9.33 w=9 l=0.5
X112 gnd.t192 commonsourceibias.t22 commonsourceibias.t23 gnd.t91 sky130_fd_pr__nfet_01v8 ad=1.155 pd=7.33 as=1.155 ps=7.33 w=7 l=1
X113 a_n2982_13878.t38 a_n2982_13878.t37 a_n2804_13878.t21 vdd.t200 sky130_fd_pr__pfet_01v8 ad=1.485 pd=9.33 as=1.485 ps=9.33 w=9 l=0.5
X114 CSoutput.t75 commonsourceibias.t84 gnd.t191 gnd.t107 sky130_fd_pr__nfet_01v8 ad=1.155 pd=7.33 as=1.155 ps=7.33 w=7 l=1
X115 vdd.t64 vdd.t62 vdd.t63 vdd.t39 sky130_fd_pr__pfet_01v8 ad=3.12 pd=16.78 as=0 ps=0 w=8 l=0.5
X116 output.t18 CSoutput.t171 vdd.t81 gnd.t24 sky130_fd_pr__nfet_01v8 ad=0.825 pd=5.33 as=0.825 ps=5.33 w=5 l=1
X117 CSoutput.t74 commonsourceibias.t85 gnd.t190 gnd.t145 sky130_fd_pr__nfet_01v8 ad=1.155 pd=7.33 as=1.155 ps=7.33 w=7 l=1
X118 a_n2982_8322.t12 a_n2982_13878.t82 vdd.t237 vdd.t236 sky130_fd_pr__pfet_01v8 ad=1.485 pd=9.33 as=1.485 ps=9.33 w=9 l=0.5
X119 a_n3827_n3924.t0 diffpairibias.t23 gnd.t1 gnd.t0 sky130_fd_pr__nfet_01v8 ad=2.73 pd=14.78 as=2.73 ps=14.78 w=7 l=1
X120 CSoutput.t146 a_n8300_8799.t69 vdd.t166 vdd.t136 sky130_fd_pr__pfet_01v8 ad=1.32 pd=8.33 as=1.32 ps=8.33 w=8 l=0.5
X121 gnd.t189 commonsourceibias.t86 CSoutput.t73 gnd.t147 sky130_fd_pr__nfet_01v8 ad=1.155 pd=7.33 as=1.155 ps=7.33 w=7 l=1
X122 a_n3827_n3924.t6 minus.t12 a_n2982_13878.t4 gnd.t8 sky130_fd_pr__nfet_01v8 ad=1.155 pd=7.33 as=1.155 ps=7.33 w=7 l=0.7
X123 a_n3827_n3924.t8 minus.t13 a_n2982_13878.t6 gnd.t12 sky130_fd_pr__nfet_01v8 ad=2.73 pd=14.78 as=1.155 ps=7.33 w=7 l=0.7
X124 commonsourceibias.t21 commonsourceibias.t20 gnd.t188 gnd.t75 sky130_fd_pr__nfet_01v8 ad=1.155 pd=7.33 as=2.73 ps=14.78 w=7 l=1
X125 vdd.t235 a_n2982_13878.t83 a_n2804_13878.t3 vdd.t234 sky130_fd_pr__pfet_01v8 ad=1.485 pd=9.33 as=1.485 ps=9.33 w=9 l=0.5
X126 gnd.t187 commonsourceibias.t87 CSoutput.t72 gnd.t129 sky130_fd_pr__nfet_01v8 ad=1.155 pd=7.33 as=1.155 ps=7.33 w=7 l=1
X127 a_n2982_13878.t1 minus.t14 a_n3827_n3924.t3 gnd.t5 sky130_fd_pr__nfet_01v8 ad=1.155 pd=7.33 as=1.155 ps=7.33 w=7 l=0.7
X128 a_n3827_n3924.t37 plus.t12 a_n8300_8799.t37 gnd.t57 sky130_fd_pr__nfet_01v8 ad=1.155 pd=7.33 as=1.155 ps=7.33 w=7 l=0.7
X129 a_n3827_n3924.t29 plus.t13 a_n8300_8799.t36 gnd.t234 sky130_fd_pr__nfet_01v8 ad=1.155 pd=7.33 as=1.155 ps=7.33 w=7 l=0.7
X130 vdd.t61 vdd.t58 vdd.t60 vdd.t59 sky130_fd_pr__pfet_01v8 ad=3.51 pd=18.78 as=0 ps=0 w=9 l=0.5
X131 gnd.t186 commonsourceibias.t18 commonsourceibias.t19 gnd.t77 sky130_fd_pr__nfet_01v8 ad=1.155 pd=7.33 as=1.155 ps=7.33 w=7 l=1
X132 output.t17 CSoutput.t172 vdd.t82 gnd.t25 sky130_fd_pr__nfet_01v8 ad=0.825 pd=5.33 as=0.825 ps=5.33 w=5 l=1
X133 CSoutput.t71 commonsourceibias.t88 gnd.t185 gnd.t118 sky130_fd_pr__nfet_01v8 ad=1.155 pd=7.33 as=1.155 ps=7.33 w=7 l=1
X134 gnd.t184 commonsourceibias.t89 CSoutput.t70 gnd.t84 sky130_fd_pr__nfet_01v8 ad=1.155 pd=7.33 as=1.155 ps=7.33 w=7 l=1
X135 a_n2982_13878.t20 minus.t15 a_n3827_n3924.t25 gnd.t19 sky130_fd_pr__nfet_01v8 ad=1.155 pd=7.33 as=1.155 ps=7.33 w=7 l=0.7
X136 a_n2804_13878.t20 a_n2982_13878.t61 a_n2982_13878.t62 vdd.t233 sky130_fd_pr__pfet_01v8 ad=1.485 pd=9.33 as=1.485 ps=9.33 w=9 l=0.5
X137 vdd.t165 a_n8300_8799.t70 CSoutput.t145 vdd.t164 sky130_fd_pr__pfet_01v8 ad=1.32 pd=8.33 as=1.32 ps=8.33 w=8 l=0.5
X138 vdd.t163 a_n8300_8799.t71 CSoutput.t144 vdd.t149 sky130_fd_pr__pfet_01v8 ad=1.32 pd=8.33 as=1.32 ps=8.33 w=8 l=0.5
X139 a_n2982_8322.t29 a_n2982_13878.t84 a_n8300_8799.t2 vdd.t219 sky130_fd_pr__pfet_01v8 ad=1.485 pd=9.33 as=1.485 ps=9.33 w=9 l=0.5
X140 gnd.t317 gnd.t315 plus.t2 gnd.t316 sky130_fd_pr__nfet_01v8 ad=0.165 pd=1.33 as=0.39 ps=2.78 w=1 l=0.5
X141 CSoutput.t69 commonsourceibias.t90 gnd.t181 gnd.t132 sky130_fd_pr__nfet_01v8 ad=1.155 pd=7.33 as=1.155 ps=7.33 w=7 l=1
X142 a_n8300_8799.t35 plus.t14 a_n3827_n3924.t28 gnd.t59 sky130_fd_pr__nfet_01v8 ad=1.155 pd=7.33 as=1.155 ps=7.33 w=7 l=0.7
X143 a_n8300_8799.t34 plus.t15 a_n3827_n3924.t46 gnd.t11 sky130_fd_pr__nfet_01v8 ad=1.155 pd=7.33 as=2.73 ps=14.78 w=7 l=0.7
X144 vdd.t57 vdd.t55 vdd.t56 vdd.t21 sky130_fd_pr__pfet_01v8 ad=3.12 pd=16.78 as=0 ps=0 w=8 l=0.5
X145 commonsourceibias.t17 commonsourceibias.t16 gnd.t183 gnd.t73 sky130_fd_pr__nfet_01v8 ad=1.155 pd=7.33 as=1.155 ps=7.33 w=7 l=1
X146 vdd.t54 vdd.t51 vdd.t53 vdd.t52 sky130_fd_pr__pfet_01v8 ad=3.51 pd=18.78 as=0 ps=0 w=9 l=0.5
X147 a_n2982_8322.t11 a_n2982_13878.t85 vdd.t232 vdd.t231 sky130_fd_pr__pfet_01v8 ad=3.51 pd=18.78 as=1.485 ps=9.33 w=9 l=0.5
X148 a_n8300_8799.t20 a_n2982_13878.t86 a_n2982_8322.t28 vdd.t199 sky130_fd_pr__pfet_01v8 ad=1.485 pd=9.33 as=1.485 ps=9.33 w=9 l=0.5
X149 gnd.t182 commonsourceibias.t91 CSoutput.t68 gnd.t102 sky130_fd_pr__nfet_01v8 ad=1.155 pd=7.33 as=1.155 ps=7.33 w=7 l=1
X150 gnd.t314 gnd.t312 gnd.t313 gnd.t259 sky130_fd_pr__nfet_01v8 ad=2.73 pd=14.78 as=0 ps=0 w=7 l=1
X151 CSoutput.t143 a_n8300_8799.t72 vdd.t162 vdd.t119 sky130_fd_pr__pfet_01v8 ad=1.32 pd=8.33 as=1.32 ps=8.33 w=8 l=0.5
X152 diffpairibias.t13 diffpairibias.t12 gnd.t37 gnd.t36 sky130_fd_pr__nfet_01v8 ad=2.73 pd=14.78 as=2.73 ps=14.78 w=7 l=1
X153 vdd.t161 a_n8300_8799.t73 CSoutput.t142 vdd.t160 sky130_fd_pr__pfet_01v8 ad=1.32 pd=8.33 as=1.32 ps=8.33 w=8 l=0.5
X154 a_n2982_13878.t7 minus.t16 a_n3827_n3924.t9 gnd.t13 sky130_fd_pr__nfet_01v8 ad=1.155 pd=7.33 as=1.155 ps=7.33 w=7 l=0.7
X155 a_n2982_13878.t34 a_n2982_13878.t33 a_n2804_13878.t19 vdd.t213 sky130_fd_pr__pfet_01v8 ad=1.485 pd=9.33 as=1.485 ps=9.33 w=9 l=0.5
X156 a_n8300_8799.t19 a_n2982_13878.t87 a_n2982_8322.t27 vdd.t230 sky130_fd_pr__pfet_01v8 ad=1.485 pd=9.33 as=1.485 ps=9.33 w=9 l=0.5
X157 gnd.t180 commonsourceibias.t38 commonsourceibias.t39 gnd.t84 sky130_fd_pr__nfet_01v8 ad=1.155 pd=7.33 as=1.155 ps=7.33 w=7 l=1
X158 a_n2804_13878.t18 a_n2982_13878.t69 a_n2982_13878.t70 vdd.t229 sky130_fd_pr__pfet_01v8 ad=1.485 pd=9.33 as=1.485 ps=9.33 w=9 l=0.5
X159 a_n3827_n3924.t4 minus.t17 a_n2982_13878.t2 gnd.t6 sky130_fd_pr__nfet_01v8 ad=1.155 pd=7.33 as=1.155 ps=7.33 w=7 l=0.7
X160 gnd.t179 commonsourceibias.t92 CSoutput.t67 gnd.t109 sky130_fd_pr__nfet_01v8 ad=1.155 pd=7.33 as=1.155 ps=7.33 w=7 l=1
X161 output.t16 CSoutput.t173 vdd.t89 gnd.t227 sky130_fd_pr__nfet_01v8 ad=0.825 pd=5.33 as=0.825 ps=5.33 w=5 l=1
X162 gnd.t178 commonsourceibias.t93 CSoutput.t66 gnd.t91 sky130_fd_pr__nfet_01v8 ad=1.155 pd=7.33 as=1.155 ps=7.33 w=7 l=1
X163 vdd.t50 vdd.t48 vdd.t49 vdd.t7 sky130_fd_pr__pfet_01v8 ad=3.51 pd=18.78 as=0 ps=0 w=9 l=0.5
X164 CSoutput.t141 a_n8300_8799.t74 vdd.t159 vdd.t153 sky130_fd_pr__pfet_01v8 ad=1.32 pd=8.33 as=1.32 ps=8.33 w=8 l=0.5
X165 gnd.t311 gnd.t308 gnd.t310 gnd.t309 sky130_fd_pr__nfet_01v8 ad=2.73 pd=14.78 as=0 ps=0 w=7 l=0.7
X166 vdd.t228 a_n2982_13878.t88 a_n2982_8322.t10 vdd.t227 sky130_fd_pr__pfet_01v8 ad=1.485 pd=9.33 as=3.51 ps=18.78 w=9 l=0.5
X167 a_n2804_13878.t17 a_n2982_13878.t41 a_n2982_13878.t42 vdd.t226 sky130_fd_pr__pfet_01v8 ad=1.485 pd=9.33 as=1.485 ps=9.33 w=9 l=0.5
X168 gnd.t307 gnd.t305 gnd.t306 gnd.t259 sky130_fd_pr__nfet_01v8 ad=2.73 pd=14.78 as=0 ps=0 w=7 l=1
X169 vdd.t158 a_n8300_8799.t75 CSoutput.t140 vdd.t151 sky130_fd_pr__pfet_01v8 ad=1.32 pd=8.33 as=1.32 ps=8.33 w=8 l=0.5
X170 output.t2 outputibias.t9 gnd.t43 gnd.t42 sky130_fd_pr__nfet_01v8 ad=2.34 pd=12.78 as=2.34 ps=12.78 w=6 l=2
X171 a_n2982_13878.t36 a_n2982_13878.t35 a_n2804_13878.t16 vdd.t196 sky130_fd_pr__pfet_01v8 ad=1.485 pd=9.33 as=1.485 ps=9.33 w=9 l=0.5
X172 gnd.t304 gnd.t301 gnd.t303 gnd.t302 sky130_fd_pr__nfet_01v8 ad=1.95 pd=10.78 as=0 ps=0 w=5 l=1
X173 gnd.t300 gnd.t298 gnd.t299 gnd.t273 sky130_fd_pr__nfet_01v8 ad=2.73 pd=14.78 as=0 ps=0 w=7 l=1
X174 minus.t3 gnd.t295 gnd.t297 gnd.t296 sky130_fd_pr__nfet_01v8 ad=0.165 pd=1.33 as=0.165 ps=1.33 w=1 l=0.5
X175 outputibias.t5 outputibias.t4 gnd.t367 gnd.t366 sky130_fd_pr__nfet_01v8 ad=2.34 pd=12.78 as=2.34 ps=12.78 w=6 l=2
X176 vdd.t90 CSoutput.t174 output.t15 gnd.t228 sky130_fd_pr__nfet_01v8 ad=0.825 pd=5.33 as=0.825 ps=5.33 w=5 l=1
X177 CSoutput.t65 commonsourceibias.t94 gnd.t177 gnd.t82 sky130_fd_pr__nfet_01v8 ad=1.155 pd=7.33 as=1.155 ps=7.33 w=7 l=1
X178 gnd.t176 commonsourceibias.t95 CSoutput.t64 gnd.t114 sky130_fd_pr__nfet_01v8 ad=1.155 pd=7.33 as=1.155 ps=7.33 w=7 l=1
X179 a_n3827_n3924.t50 plus.t16 a_n8300_8799.t33 gnd.t56 sky130_fd_pr__nfet_01v8 ad=1.155 pd=7.33 as=1.155 ps=7.33 w=7 l=0.7
X180 gnd.t68 commonsourceibias.t96 CSoutput.t63 gnd.t67 sky130_fd_pr__nfet_01v8 ad=1.155 pd=7.33 as=1.155 ps=7.33 w=7 l=1
X181 vdd.t157 a_n8300_8799.t76 CSoutput.t139 vdd.t117 sky130_fd_pr__pfet_01v8 ad=1.32 pd=8.33 as=1.32 ps=8.33 w=8 l=0.5
X182 a_n3827_n3924.t54 diffpairibias.t24 gnd.t369 gnd.t368 sky130_fd_pr__nfet_01v8 ad=2.73 pd=14.78 as=2.73 ps=14.78 w=7 l=1
X183 a_n3827_n3924.t56 diffpairibias.t25 gnd.t373 gnd.t372 sky130_fd_pr__nfet_01v8 ad=2.73 pd=14.78 as=2.73 ps=14.78 w=7 l=1
X184 outputibias.t3 outputibias.t2 gnd.t233 gnd.t232 sky130_fd_pr__nfet_01v8 ad=2.34 pd=12.78 as=2.34 ps=12.78 w=6 l=2
X185 vdd.t156 a_n8300_8799.t77 CSoutput.t138 vdd.t142 sky130_fd_pr__pfet_01v8 ad=1.32 pd=8.33 as=1.32 ps=8.33 w=8 l=0.5
X186 a_n8300_8799.t32 plus.t17 a_n3827_n3924.t32 gnd.t7 sky130_fd_pr__nfet_01v8 ad=1.155 pd=7.33 as=1.155 ps=7.33 w=7 l=0.7
X187 gnd.t294 gnd.t292 gnd.t293 gnd.t244 sky130_fd_pr__nfet_01v8 ad=2.73 pd=14.78 as=0 ps=0 w=7 l=1
X188 vdd.t47 vdd.t45 vdd.t46 vdd.t21 sky130_fd_pr__pfet_01v8 ad=3.12 pd=16.78 as=0 ps=0 w=8 l=0.5
X189 a_n2804_13878.t15 a_n2982_13878.t39 a_n2982_13878.t40 vdd.t201 sky130_fd_pr__pfet_01v8 ad=1.485 pd=9.33 as=1.485 ps=9.33 w=9 l=0.5
X190 gnd.t291 gnd.t289 gnd.t290 gnd.t244 sky130_fd_pr__nfet_01v8 ad=2.73 pd=14.78 as=0 ps=0 w=7 l=1
X191 a_n2982_8322.t26 a_n2982_13878.t89 a_n8300_8799.t4 vdd.t225 sky130_fd_pr__pfet_01v8 ad=1.485 pd=9.33 as=1.485 ps=9.33 w=9 l=0.5
X192 CSoutput.t137 a_n8300_8799.t78 vdd.t155 vdd.t94 sky130_fd_pr__pfet_01v8 ad=1.32 pd=8.33 as=1.32 ps=8.33 w=8 l=0.5
X193 vdd.t91 CSoutput.t175 output.t14 gnd.t229 sky130_fd_pr__nfet_01v8 ad=0.825 pd=5.33 as=0.825 ps=5.33 w=5 l=1
X194 CSoutput.t62 commonsourceibias.t97 gnd.t175 gnd.t160 sky130_fd_pr__nfet_01v8 ad=1.155 pd=7.33 as=1.155 ps=7.33 w=7 l=1
X195 output.t13 CSoutput.t176 vdd.t87 gnd.t225 sky130_fd_pr__nfet_01v8 ad=0.825 pd=5.33 as=0.825 ps=5.33 w=5 l=1
X196 gnd.t288 gnd.t286 gnd.t287 gnd.t240 sky130_fd_pr__nfet_01v8 ad=2.73 pd=14.78 as=0 ps=0 w=7 l=1
X197 gnd.t174 commonsourceibias.t98 CSoutput.t61 gnd.t129 sky130_fd_pr__nfet_01v8 ad=1.155 pd=7.33 as=1.155 ps=7.33 w=7 l=1
X198 diffpairibias.t11 diffpairibias.t10 gnd.t39 gnd.t38 sky130_fd_pr__nfet_01v8 ad=2.73 pd=14.78 as=2.73 ps=14.78 w=7 l=1
X199 a_n2804_13878.t1 a_n2982_13878.t90 vdd.t224 vdd.t223 sky130_fd_pr__pfet_01v8 ad=1.485 pd=9.33 as=1.485 ps=9.33 w=9 l=0.5
X200 vdd.t222 a_n2982_13878.t91 a_n2804_13878.t0 vdd.t221 sky130_fd_pr__pfet_01v8 ad=1.485 pd=9.33 as=1.485 ps=9.33 w=9 l=0.5
X201 CSoutput.t136 a_n8300_8799.t79 vdd.t154 vdd.t153 sky130_fd_pr__pfet_01v8 ad=1.32 pd=8.33 as=1.32 ps=8.33 w=8 l=0.5
X202 gnd.t173 commonsourceibias.t99 CSoutput.t60 gnd.t139 sky130_fd_pr__nfet_01v8 ad=1.155 pd=7.33 as=1.155 ps=7.33 w=7 l=1
X203 CSoutput.t59 commonsourceibias.t100 gnd.t76 gnd.t75 sky130_fd_pr__nfet_01v8 ad=1.155 pd=7.33 as=2.73 ps=14.78 w=7 l=1
X204 vdd.t152 a_n8300_8799.t80 CSoutput.t135 vdd.t151 sky130_fd_pr__pfet_01v8 ad=1.32 pd=8.33 as=1.32 ps=8.33 w=8 l=0.5
X205 output.t12 CSoutput.t177 vdd.t88 gnd.t226 sky130_fd_pr__nfet_01v8 ad=0.825 pd=5.33 as=0.825 ps=5.33 w=5 l=1
X206 vdd.t150 a_n8300_8799.t81 CSoutput.t134 vdd.t149 sky130_fd_pr__pfet_01v8 ad=1.32 pd=8.33 as=1.32 ps=8.33 w=8 l=0.5
X207 CSoutput.t133 a_n8300_8799.t82 vdd.t148 vdd.t130 sky130_fd_pr__pfet_01v8 ad=1.32 pd=8.33 as=1.32 ps=8.33 w=8 l=0.5
X208 plus.t1 gnd.t283 gnd.t285 gnd.t284 sky130_fd_pr__nfet_01v8 ad=0.165 pd=1.33 as=0.165 ps=1.33 w=1 l=0.5
X209 a_n2804_13878.t14 a_n2982_13878.t47 a_n2982_13878.t48 vdd.t220 sky130_fd_pr__pfet_01v8 ad=1.485 pd=9.33 as=1.485 ps=9.33 w=9 l=0.5
X210 diffpairibias.t9 diffpairibias.t8 gnd.t64 gnd.t63 sky130_fd_pr__nfet_01v8 ad=2.73 pd=14.78 as=2.73 ps=14.78 w=7 l=1
X211 gnd.t172 commonsourceibias.t101 CSoutput.t58 gnd.t109 sky130_fd_pr__nfet_01v8 ad=1.155 pd=7.33 as=1.155 ps=7.33 w=7 l=1
X212 a_n3827_n3924.t10 minus.t18 a_n2982_13878.t8 gnd.t14 sky130_fd_pr__nfet_01v8 ad=1.155 pd=7.33 as=1.155 ps=7.33 w=7 l=0.7
X213 vdd.t147 a_n8300_8799.t83 CSoutput.t132 vdd.t117 sky130_fd_pr__pfet_01v8 ad=1.32 pd=8.33 as=1.32 ps=8.33 w=8 l=0.5
X214 commonsourceibias.t37 commonsourceibias.t36 gnd.t171 gnd.t160 sky130_fd_pr__nfet_01v8 ad=1.155 pd=7.33 as=1.155 ps=7.33 w=7 l=1
X215 a_n2982_13878.t22 minus.t19 a_n3827_n3924.t27 gnd.t235 sky130_fd_pr__nfet_01v8 ad=1.155 pd=7.33 as=2.73 ps=14.78 w=7 l=0.7
X216 a_n2982_8322.t25 a_n2982_13878.t92 a_n8300_8799.t47 vdd.t188 sky130_fd_pr__pfet_01v8 ad=1.485 pd=9.33 as=1.485 ps=9.33 w=9 l=0.5
X217 a_n2982_13878.t64 a_n2982_13878.t63 a_n2804_13878.t13 vdd.t219 sky130_fd_pr__pfet_01v8 ad=1.485 pd=9.33 as=1.485 ps=9.33 w=9 l=0.5
X218 CSoutput.t131 a_n8300_8799.t84 vdd.t146 vdd.t121 sky130_fd_pr__pfet_01v8 ad=1.32 pd=8.33 as=3.12 ps=16.78 w=8 l=0.5
X219 outputibias.t1 outputibias.t0 gnd.t363 gnd.t362 sky130_fd_pr__nfet_01v8 ad=2.34 pd=12.78 as=2.34 ps=12.78 w=6 l=2
X220 diffpairibias.t7 diffpairibias.t6 gnd.t49 gnd.t48 sky130_fd_pr__nfet_01v8 ad=2.73 pd=14.78 as=2.73 ps=14.78 w=7 l=1
X221 vdd.t145 a_n8300_8799.t85 CSoutput.t130 vdd.t144 sky130_fd_pr__pfet_01v8 ad=3.12 pd=16.78 as=1.32 ps=8.33 w=8 l=0.5
X222 a_n2804_13878.t12 a_n2982_13878.t55 a_n2982_13878.t56 vdd.t218 sky130_fd_pr__pfet_01v8 ad=1.485 pd=9.33 as=1.485 ps=9.33 w=9 l=0.5
X223 a_n2982_13878.t14 minus.t20 a_n3827_n3924.t16 gnd.t35 sky130_fd_pr__nfet_01v8 ad=1.155 pd=7.33 as=1.155 ps=7.33 w=7 l=0.7
X224 a_n2982_13878.t0 minus.t21 a_n3827_n3924.t2 gnd.t4 sky130_fd_pr__nfet_01v8 ad=1.155 pd=7.33 as=1.155 ps=7.33 w=7 l=0.7
X225 vdd.t44 vdd.t42 vdd.t43 vdd.t25 sky130_fd_pr__pfet_01v8 ad=3.12 pd=16.78 as=0 ps=0 w=8 l=0.5
X226 vdd.t217 a_n2982_13878.t93 a_n2982_8322.t9 vdd.t216 sky130_fd_pr__pfet_01v8 ad=1.485 pd=9.33 as=3.51 ps=18.78 w=9 l=0.5
X227 vdd.t143 a_n8300_8799.t86 CSoutput.t129 vdd.t142 sky130_fd_pr__pfet_01v8 ad=1.32 pd=8.33 as=1.32 ps=8.33 w=8 l=0.5
X228 output.t1 outputibias.t10 gnd.t41 gnd.t40 sky130_fd_pr__nfet_01v8 ad=2.34 pd=12.78 as=2.34 ps=12.78 w=6 l=2
X229 a_n3827_n3924.t15 minus.t22 a_n2982_13878.t13 gnd.t34 sky130_fd_pr__nfet_01v8 ad=1.155 pd=7.33 as=1.155 ps=7.33 w=7 l=0.7
X230 CSoutput.t57 commonsourceibias.t102 gnd.t170 gnd.t86 sky130_fd_pr__nfet_01v8 ad=1.155 pd=7.33 as=1.155 ps=7.33 w=7 l=1
X231 CSoutput.t178 a_n2982_8322.t3 sky130_fd_pr__cap_mim_m3_1 l=12 w=12
X232 a_n8300_8799.t31 plus.t18 a_n3827_n3924.t31 gnd.t32 sky130_fd_pr__nfet_01v8 ad=1.155 pd=7.33 as=1.155 ps=7.33 w=7 l=0.7
X233 commonsourceibias.t35 commonsourceibias.t34 gnd.t169 gnd.t134 sky130_fd_pr__nfet_01v8 ad=1.155 pd=7.33 as=1.155 ps=7.33 w=7 l=1
X234 a_n3827_n3924.t20 minus.t23 a_n2982_13878.t17 gnd.t60 sky130_fd_pr__nfet_01v8 ad=1.155 pd=7.33 as=1.155 ps=7.33 w=7 l=0.7
X235 CSoutput.t128 a_n8300_8799.t87 vdd.t141 vdd.t133 sky130_fd_pr__pfet_01v8 ad=1.32 pd=8.33 as=1.32 ps=8.33 w=8 l=0.5
X236 gnd.t282 gnd.t279 gnd.t281 gnd.t280 sky130_fd_pr__nfet_01v8 ad=2.73 pd=14.78 as=0 ps=0 w=7 l=1
X237 a_n2804_13878.t2 a_n2982_13878.t94 vdd.t215 vdd.t214 sky130_fd_pr__pfet_01v8 ad=3.51 pd=18.78 as=1.485 ps=9.33 w=9 l=0.5
X238 vdd.t41 vdd.t38 vdd.t40 vdd.t39 sky130_fd_pr__pfet_01v8 ad=3.12 pd=16.78 as=0 ps=0 w=8 l=0.5
X239 vdd.t37 vdd.t35 vdd.t36 vdd.t25 sky130_fd_pr__pfet_01v8 ad=3.12 pd=16.78 as=0 ps=0 w=8 l=0.5
X240 vdd.t0 CSoutput.t179 output.t11 gnd.t17 sky130_fd_pr__nfet_01v8 ad=0.825 pd=5.33 as=0.825 ps=5.33 w=5 l=1
X241 CSoutput.t56 commonsourceibias.t103 gnd.t167 gnd.t86 sky130_fd_pr__nfet_01v8 ad=1.155 pd=7.33 as=1.155 ps=7.33 w=7 l=1
X242 gnd.t168 commonsourceibias.t104 CSoutput.t55 gnd.t147 sky130_fd_pr__nfet_01v8 ad=1.155 pd=7.33 as=1.155 ps=7.33 w=7 l=1
X243 CSoutput.t180 a_n2982_8322.t2 sky130_fd_pr__cap_mim_m3_1 l=12 w=12
X244 CSoutput.t127 a_n8300_8799.t88 vdd.t140 vdd.t130 sky130_fd_pr__pfet_01v8 ad=1.32 pd=8.33 as=1.32 ps=8.33 w=8 l=0.5
X245 gnd.t166 commonsourceibias.t32 commonsourceibias.t33 gnd.t96 sky130_fd_pr__nfet_01v8 ad=2.73 pd=14.78 as=1.155 ps=7.33 w=7 l=1
X246 gnd.t278 gnd.t276 minus.t2 gnd.t277 sky130_fd_pr__nfet_01v8 ad=0.165 pd=1.33 as=0.39 ps=2.78 w=1 l=0.5
X247 gnd.t165 commonsourceibias.t105 CSoutput.t54 gnd.t114 sky130_fd_pr__nfet_01v8 ad=1.155 pd=7.33 as=1.155 ps=7.33 w=7 l=1