* NGSPICE file created from opamp648.ext - technology: sky130A

.subckt opamp648 gnd CSoutput output vdd plus minus commonsourceibias outputibias
+ diffpairibias
X0 CSoutput a_n8964_8799# vdd vdd sky130_fd_pr__pfet_01v8 ad=1.32 pd=8.33 as=3.12 ps=16.78 w=8 l=0.5
X1 gnd commonsourceibias commonsourceibias gnd sky130_fd_pr__nfet_01v8 ad=1.155 pd=7.33 as=1.155 ps=7.33 w=7 l=1
X2 a_n2472_13878# a_n2650_13878# a_n2650_13878# vdd sky130_fd_pr__pfet_01v8 ad=1.485 pd=9.33 as=1.485 ps=9.33 w=9 l=0.5
X3 a_n2472_13878# a_n2650_13878# vdd vdd sky130_fd_pr__pfet_01v8 ad=1.485 pd=9.33 as=1.485 ps=9.33 w=9 l=0.5
X4 gnd commonsourceibias CSoutput gnd sky130_fd_pr__nfet_01v8 ad=1.155 pd=7.33 as=1.155 ps=7.33 w=7 l=1
X5 gnd commonsourceibias CSoutput gnd sky130_fd_pr__nfet_01v8 ad=1.155 pd=7.33 as=1.155 ps=7.33 w=7 l=1
X6 CSoutput commonsourceibias gnd gnd sky130_fd_pr__nfet_01v8 ad=1.155 pd=7.33 as=1.155 ps=7.33 w=7 l=1
X7 vdd a_n8964_8799# CSoutput vdd sky130_fd_pr__pfet_01v8 ad=1.32 pd=8.33 as=1.32 ps=8.33 w=8 l=0.5
X8 commonsourceibias commonsourceibias gnd gnd sky130_fd_pr__nfet_01v8 ad=1.155 pd=7.33 as=1.155 ps=7.33 w=7 l=1
X9 gnd commonsourceibias CSoutput gnd sky130_fd_pr__nfet_01v8 ad=1.155 pd=7.33 as=1.155 ps=7.33 w=7 l=1
X10 a_n8964_8799# plus a_n3827_n3924# gnd sky130_fd_pr__nfet_01v8 ad=1.155 pd=7.33 as=1.155 ps=7.33 w=7 l=0.9
X11 CSoutput a_n8964_8799# vdd vdd sky130_fd_pr__pfet_01v8 ad=1.32 pd=8.33 as=1.32 ps=8.33 w=8 l=0.5
X12 gnd commonsourceibias commonsourceibias gnd sky130_fd_pr__nfet_01v8 ad=1.155 pd=7.33 as=1.155 ps=7.33 w=7 l=1
X13 a_n3827_n3924# diffpairibias gnd gnd sky130_fd_pr__nfet_01v8 ad=2.73 pd=14.78 as=2.73 ps=14.78 w=7 l=1
X14 CSoutput commonsourceibias gnd gnd sky130_fd_pr__nfet_01v8 ad=1.155 pd=7.33 as=1.155 ps=7.33 w=7 l=1
X15 CSoutput a_n8964_8799# vdd vdd sky130_fd_pr__pfet_01v8 ad=1.32 pd=8.33 as=1.32 ps=8.33 w=8 l=0.5
X16 minus gnd gnd gnd sky130_fd_pr__nfet_01v8 ad=0.165 pd=1.33 as=0.165 ps=1.33 w=1 l=0.5
X17 vdd a_n8964_8799# CSoutput vdd sky130_fd_pr__pfet_01v8 ad=1.32 pd=8.33 as=1.32 ps=8.33 w=8 l=0.5
X18 gnd commonsourceibias commonsourceibias gnd sky130_fd_pr__nfet_01v8 ad=1.155 pd=7.33 as=1.155 ps=7.33 w=7 l=1
X19 a_n2650_8322# a_n2650_13878# a_n8964_8799# vdd sky130_fd_pr__pfet_01v8 ad=1.485 pd=9.33 as=1.485 ps=9.33 w=9 l=0.5
X20 CSoutput a_n8964_8799# vdd vdd sky130_fd_pr__pfet_01v8 ad=1.32 pd=8.33 as=1.32 ps=8.33 w=8 l=0.5
X21 commonsourceibias commonsourceibias gnd gnd sky130_fd_pr__nfet_01v8 ad=1.155 pd=7.33 as=1.155 ps=7.33 w=7 l=1
X22 vdd a_n8964_8799# CSoutput vdd sky130_fd_pr__pfet_01v8 ad=1.32 pd=8.33 as=1.32 ps=8.33 w=8 l=0.5
X23 gnd commonsourceibias CSoutput gnd sky130_fd_pr__nfet_01v8 ad=1.155 pd=7.33 as=1.155 ps=7.33 w=7 l=1
X24 CSoutput a_n8964_8799# vdd vdd sky130_fd_pr__pfet_01v8 ad=1.32 pd=8.33 as=1.32 ps=8.33 w=8 l=0.5
X25 vdd a_n8964_8799# CSoutput vdd sky130_fd_pr__pfet_01v8 ad=1.32 pd=8.33 as=1.32 ps=8.33 w=8 l=0.5
X26 vdd a_n8964_8799# CSoutput vdd sky130_fd_pr__pfet_01v8 ad=1.32 pd=8.33 as=1.32 ps=8.33 w=8 l=0.5
X27 gnd gnd gnd gnd sky130_fd_pr__nfet_01v8 ad=2.73 pd=14.78 as=422.7 ps=2.4506k w=7 l=1
X28 a_n2650_13878# minus a_n3827_n3924# gnd sky130_fd_pr__nfet_01v8 ad=1.155 pd=7.33 as=1.155 ps=7.33 w=7 l=0.9
X29 a_n8964_8799# plus a_n3827_n3924# gnd sky130_fd_pr__nfet_01v8 ad=1.155 pd=7.33 as=1.155 ps=7.33 w=7 l=0.9
X30 a_n8964_8799# a_n2650_13878# a_n2650_8322# vdd sky130_fd_pr__pfet_01v8 ad=1.485 pd=9.33 as=1.485 ps=9.33 w=9 l=0.5
X31 CSoutput commonsourceibias gnd gnd sky130_fd_pr__nfet_01v8 ad=1.155 pd=7.33 as=1.155 ps=7.33 w=7 l=1
X32 vdd a_n8964_8799# CSoutput vdd sky130_fd_pr__pfet_01v8 ad=1.32 pd=8.33 as=1.32 ps=8.33 w=8 l=0.5
X33 a_n2650_13878# minus a_n3827_n3924# gnd sky130_fd_pr__nfet_01v8 ad=1.155 pd=7.33 as=1.155 ps=7.33 w=7 l=0.9
X34 gnd gnd gnd gnd sky130_fd_pr__nfet_01v8 ad=2.34 pd=12.78 as=0 ps=0 w=6 l=2
X35 CSoutput commonsourceibias gnd gnd sky130_fd_pr__nfet_01v8 ad=1.155 pd=7.33 as=1.155 ps=7.33 w=7 l=1
X36 vdd a_n8964_8799# CSoutput vdd sky130_fd_pr__pfet_01v8 ad=1.32 pd=8.33 as=1.32 ps=8.33 w=8 l=0.5
X37 commonsourceibias commonsourceibias gnd gnd sky130_fd_pr__nfet_01v8 ad=1.155 pd=7.33 as=1.155 ps=7.33 w=7 l=1
X38 a_n8964_8799# a_n2650_13878# a_n2650_8322# vdd sky130_fd_pr__pfet_01v8 ad=1.485 pd=9.33 as=3.51 ps=18.78 w=9 l=0.5
X39 gnd commonsourceibias CSoutput gnd sky130_fd_pr__nfet_01v8 ad=1.155 pd=7.33 as=1.155 ps=7.33 w=7 l=1
X40 gnd gnd gnd gnd sky130_fd_pr__nfet_01v8 ad=2.73 pd=14.78 as=0 ps=0 w=7 l=1
X41 CSoutput commonsourceibias gnd gnd sky130_fd_pr__nfet_01v8 ad=1.155 pd=7.33 as=1.155 ps=7.33 w=7 l=1
X42 CSoutput commonsourceibias gnd gnd sky130_fd_pr__nfet_01v8 ad=1.155 pd=7.33 as=1.155 ps=7.33 w=7 l=1
X43 gnd commonsourceibias commonsourceibias gnd sky130_fd_pr__nfet_01v8 ad=1.155 pd=7.33 as=1.155 ps=7.33 w=7 l=1
X44 outputibias outputibias gnd gnd sky130_fd_pr__nfet_01v8 ad=2.34 pd=12.78 as=2.34 ps=12.78 w=6 l=2
X45 gnd commonsourceibias commonsourceibias gnd sky130_fd_pr__nfet_01v8 ad=2.73 pd=14.78 as=1.155 ps=7.33 w=7 l=1
X46 CSoutput commonsourceibias gnd gnd sky130_fd_pr__nfet_01v8 ad=1.155 pd=7.33 as=1.155 ps=7.33 w=7 l=1
X47 CSoutput a_n8964_8799# vdd vdd sky130_fd_pr__pfet_01v8 ad=1.32 pd=8.33 as=3.12 ps=16.78 w=8 l=0.5
X48 a_n3827_n3924# plus a_n8964_8799# gnd sky130_fd_pr__nfet_01v8 ad=2.73 pd=14.78 as=1.155 ps=7.33 w=7 l=0.9
X49 a_n3827_n3924# diffpairibias gnd gnd sky130_fd_pr__nfet_01v8 ad=2.73 pd=14.78 as=2.73 ps=14.78 w=7 l=1
X50 commonsourceibias commonsourceibias gnd gnd sky130_fd_pr__nfet_01v8 ad=1.155 pd=7.33 as=1.155 ps=7.33 w=7 l=1
X51 a_n3827_n3924# minus a_n2650_13878# gnd sky130_fd_pr__nfet_01v8 ad=1.155 pd=7.33 as=1.155 ps=7.33 w=7 l=0.9
X52 CSoutput a_n8964_8799# vdd vdd sky130_fd_pr__pfet_01v8 ad=1.32 pd=8.33 as=1.32 ps=8.33 w=8 l=0.5
X53 vdd a_n8964_8799# CSoutput vdd sky130_fd_pr__pfet_01v8 ad=1.32 pd=8.33 as=1.32 ps=8.33 w=8 l=0.5
X54 CSoutput commonsourceibias gnd gnd sky130_fd_pr__nfet_01v8 ad=1.155 pd=7.33 as=1.155 ps=7.33 w=7 l=1
X55 CSoutput a_n8964_8799# vdd vdd sky130_fd_pr__pfet_01v8 ad=1.32 pd=8.33 as=1.32 ps=8.33 w=8 l=0.5
X56 vdd vdd vdd vdd sky130_fd_pr__pfet_01v8 ad=3.51 pd=18.78 as=348.84 ps=2.0286k w=9 l=0.5
X57 gnd commonsourceibias commonsourceibias gnd sky130_fd_pr__nfet_01v8 ad=1.155 pd=7.33 as=1.155 ps=7.33 w=7 l=1
X58 CSoutput commonsourceibias gnd gnd sky130_fd_pr__nfet_01v8 ad=1.155 pd=7.33 as=2.73 ps=14.78 w=7 l=1
X59 vdd a_n8964_8799# CSoutput vdd sky130_fd_pr__pfet_01v8 ad=1.32 pd=8.33 as=1.32 ps=8.33 w=8 l=0.5
X60 a_n2472_13878# a_n2650_13878# a_n2650_13878# vdd sky130_fd_pr__pfet_01v8 ad=1.485 pd=9.33 as=1.485 ps=9.33 w=9 l=0.5
X61 a_n2650_13878# a_n2650_13878# a_n2472_13878# vdd sky130_fd_pr__pfet_01v8 ad=1.485 pd=9.33 as=1.485 ps=9.33 w=9 l=0.5
X62 CSoutput a_n8964_8799# vdd vdd sky130_fd_pr__pfet_01v8 ad=1.32 pd=8.33 as=1.32 ps=8.33 w=8 l=0.5
X63 gnd gnd plus gnd sky130_fd_pr__nfet_01v8 ad=0.165 pd=1.33 as=0.39 ps=2.78 w=1 l=0.5
X64 vdd vdd vdd vdd sky130_fd_pr__pfet_01v8 ad=3.51 pd=18.78 as=0 ps=0 w=9 l=0.5
X65 vdd a_n8964_8799# CSoutput vdd sky130_fd_pr__pfet_01v8 ad=1.32 pd=8.33 as=1.32 ps=8.33 w=8 l=0.5
X66 vdd a_n8964_8799# CSoutput vdd sky130_fd_pr__pfet_01v8 ad=1.32 pd=8.33 as=1.32 ps=8.33 w=8 l=0.5
X67 a_n3827_n3924# plus a_n8964_8799# gnd sky130_fd_pr__nfet_01v8 ad=1.155 pd=7.33 as=1.155 ps=7.33 w=7 l=0.9
X68 CSoutput commonsourceibias gnd gnd sky130_fd_pr__nfet_01v8 ad=1.155 pd=7.33 as=2.73 ps=14.78 w=7 l=1
X69 vdd CSoutput output gnd sky130_fd_pr__nfet_01v8 ad=0.825 pd=5.33 as=0.825 ps=5.33 w=5 l=1
X70 gnd commonsourceibias CSoutput gnd sky130_fd_pr__nfet_01v8 ad=1.155 pd=7.33 as=1.155 ps=7.33 w=7 l=1
X71 diffpairibias diffpairibias gnd gnd sky130_fd_pr__nfet_01v8 ad=2.73 pd=14.78 as=2.73 ps=14.78 w=7 l=1
X72 CSoutput commonsourceibias gnd gnd sky130_fd_pr__nfet_01v8 ad=1.155 pd=7.33 as=1.155 ps=7.33 w=7 l=1
X73 a_n2650_13878# a_n2650_13878# a_n2472_13878# vdd sky130_fd_pr__pfet_01v8 ad=1.485 pd=9.33 as=1.485 ps=9.33 w=9 l=0.5
X74 CSoutput a_n8964_8799# vdd vdd sky130_fd_pr__pfet_01v8 ad=1.32 pd=8.33 as=1.32 ps=8.33 w=8 l=0.5
X75 a_n8964_8799# a_n2650_13878# a_n2650_8322# vdd sky130_fd_pr__pfet_01v8 ad=1.485 pd=9.33 as=1.485 ps=9.33 w=9 l=0.5
X76 CSoutput commonsourceibias gnd gnd sky130_fd_pr__nfet_01v8 ad=1.155 pd=7.33 as=1.155 ps=7.33 w=7 l=1
X77 CSoutput commonsourceibias gnd gnd sky130_fd_pr__nfet_01v8 ad=1.155 pd=7.33 as=1.155 ps=7.33 w=7 l=1
X78 vdd a_n8964_8799# CSoutput vdd sky130_fd_pr__pfet_01v8 ad=1.32 pd=8.33 as=1.32 ps=8.33 w=8 l=0.5
X79 CSoutput a_n8964_8799# vdd vdd sky130_fd_pr__pfet_01v8 ad=1.32 pd=8.33 as=1.32 ps=8.33 w=8 l=0.5
X80 commonsourceibias commonsourceibias gnd gnd sky130_fd_pr__nfet_01v8 ad=1.155 pd=7.33 as=1.155 ps=7.33 w=7 l=1
X81 a_n2650_13878# a_n2650_13878# a_n2472_13878# vdd sky130_fd_pr__pfet_01v8 ad=3.51 pd=18.78 as=1.485 ps=9.33 w=9 l=0.5
X82 vdd a_n8964_8799# CSoutput vdd sky130_fd_pr__pfet_01v8 ad=1.32 pd=8.33 as=1.32 ps=8.33 w=8 l=0.5
X83 gnd gnd gnd gnd sky130_fd_pr__nfet_01v8 ad=2.73 pd=14.78 as=0 ps=0 w=7 l=1
X84 vdd a_n8964_8799# CSoutput vdd sky130_fd_pr__pfet_01v8 ad=1.32 pd=8.33 as=1.32 ps=8.33 w=8 l=0.5
X85 CSoutput commonsourceibias gnd gnd sky130_fd_pr__nfet_01v8 ad=1.155 pd=7.33 as=1.155 ps=7.33 w=7 l=1
X86 a_n8964_8799# a_n2650_13878# a_n2650_8322# vdd sky130_fd_pr__pfet_01v8 ad=1.485 pd=9.33 as=3.51 ps=18.78 w=9 l=0.5
X87 diffpairibias diffpairibias gnd gnd sky130_fd_pr__nfet_01v8 ad=2.73 pd=14.78 as=2.73 ps=14.78 w=7 l=1
X88 CSoutput a_n8964_8799# vdd vdd sky130_fd_pr__pfet_01v8 ad=1.32 pd=8.33 as=1.32 ps=8.33 w=8 l=0.5
X89 gnd gnd gnd gnd sky130_fd_pr__nfet_01v8 ad=2.73 pd=14.78 as=0 ps=0 w=7 l=1
X90 a_n2650_8322# a_n2650_13878# a_n8964_8799# vdd sky130_fd_pr__pfet_01v8 ad=3.51 pd=18.78 as=1.485 ps=9.33 w=9 l=0.5
X91 CSoutput commonsourceibias gnd gnd sky130_fd_pr__nfet_01v8 ad=1.155 pd=7.33 as=2.73 ps=14.78 w=7 l=1
X92 CSoutput commonsourceibias gnd gnd sky130_fd_pr__nfet_01v8 ad=1.155 pd=7.33 as=1.155 ps=7.33 w=7 l=1
X93 gnd gnd gnd gnd sky130_fd_pr__nfet_01v8 ad=2.73 pd=14.78 as=0 ps=0 w=7 l=1
X94 CSoutput a_n8964_8799# vdd vdd sky130_fd_pr__pfet_01v8 ad=1.32 pd=8.33 as=1.32 ps=8.33 w=8 l=0.5
X95 a_n3827_n3924# minus a_n2650_13878# gnd sky130_fd_pr__nfet_01v8 ad=1.155 pd=7.33 as=1.155 ps=7.33 w=7 l=0.9
X96 a_n3827_n3924# plus a_n8964_8799# gnd sky130_fd_pr__nfet_01v8 ad=2.73 pd=14.78 as=1.155 ps=7.33 w=7 l=0.9
X97 gnd commonsourceibias CSoutput gnd sky130_fd_pr__nfet_01v8 ad=1.155 pd=7.33 as=1.155 ps=7.33 w=7 l=1
X98 CSoutput commonsourceibias gnd gnd sky130_fd_pr__nfet_01v8 ad=1.155 pd=7.33 as=1.155 ps=7.33 w=7 l=1
X99 gnd commonsourceibias CSoutput gnd sky130_fd_pr__nfet_01v8 ad=2.73 pd=14.78 as=1.155 ps=7.33 w=7 l=1
X100 gnd gnd gnd gnd sky130_fd_pr__nfet_01v8 ad=2.73 pd=14.78 as=0 ps=0 w=7 l=1
X101 vdd vdd vdd vdd sky130_fd_pr__pfet_01v8 ad=3.12 pd=16.78 as=0 ps=0 w=8 l=0.5
X102 output outputibias gnd gnd sky130_fd_pr__nfet_01v8 ad=2.34 pd=12.78 as=2.34 ps=12.78 w=6 l=2
X103 a_n3827_n3924# diffpairibias gnd gnd sky130_fd_pr__nfet_01v8 ad=2.73 pd=14.78 as=2.73 ps=14.78 w=7 l=1
X104 vdd a_n8964_8799# CSoutput vdd sky130_fd_pr__pfet_01v8 ad=1.32 pd=8.33 as=1.32 ps=8.33 w=8 l=0.5
X105 vdd a_n8964_8799# CSoutput vdd sky130_fd_pr__pfet_01v8 ad=1.32 pd=8.33 as=1.32 ps=8.33 w=8 l=0.5
X106 CSoutput commonsourceibias gnd gnd sky130_fd_pr__nfet_01v8 ad=1.155 pd=7.33 as=1.155 ps=7.33 w=7 l=1
X107 a_n2650_13878# a_n2650_13878# a_n2472_13878# vdd sky130_fd_pr__pfet_01v8 ad=1.485 pd=9.33 as=1.485 ps=9.33 w=9 l=0.5
X108 vdd a_n8964_8799# CSoutput vdd sky130_fd_pr__pfet_01v8 ad=3.12 pd=16.78 as=1.32 ps=8.33 w=8 l=0.5
X109 vdd a_n8964_8799# CSoutput vdd sky130_fd_pr__pfet_01v8 ad=1.32 pd=8.33 as=1.32 ps=8.33 w=8 l=0.5
X110 a_n3827_n3924# plus a_n8964_8799# gnd sky130_fd_pr__nfet_01v8 ad=1.155 pd=7.33 as=1.155 ps=7.33 w=7 l=0.9
X111 a_n8964_8799# a_n2650_13878# a_n2650_8322# vdd sky130_fd_pr__pfet_01v8 ad=1.485 pd=9.33 as=1.485 ps=9.33 w=9 l=0.5
X112 a_n2650_13878# a_n2650_13878# a_n2472_13878# vdd sky130_fd_pr__pfet_01v8 ad=3.51 pd=18.78 as=1.485 ps=9.33 w=9 l=0.5
X113 gnd commonsourceibias CSoutput gnd sky130_fd_pr__nfet_01v8 ad=1.155 pd=7.33 as=1.155 ps=7.33 w=7 l=1
X114 vdd CSoutput output gnd sky130_fd_pr__nfet_01v8 ad=0.825 pd=5.33 as=0.825 ps=5.33 w=5 l=1
X115 commonsourceibias commonsourceibias gnd gnd sky130_fd_pr__nfet_01v8 ad=1.155 pd=7.33 as=1.155 ps=7.33 w=7 l=1
X116 gnd commonsourceibias CSoutput gnd sky130_fd_pr__nfet_01v8 ad=1.155 pd=7.33 as=1.155 ps=7.33 w=7 l=1
X117 gnd gnd gnd gnd sky130_fd_pr__nfet_01v8 ad=1.95 pd=10.78 as=0 ps=0 w=5 l=1
X118 CSoutput commonsourceibias gnd gnd sky130_fd_pr__nfet_01v8 ad=1.155 pd=7.33 as=1.155 ps=7.33 w=7 l=1
X119 vdd a_n8964_8799# CSoutput vdd sky130_fd_pr__pfet_01v8 ad=1.32 pd=8.33 as=1.32 ps=8.33 w=8 l=0.5
X120 CSoutput a_n2650_8322# sky130_fd_pr__cap_mim_m3_1 l=12 w=12
X121 gnd commonsourceibias commonsourceibias gnd sky130_fd_pr__nfet_01v8 ad=1.155 pd=7.33 as=1.155 ps=7.33 w=7 l=1
X122 CSoutput a_n8964_8799# vdd vdd sky130_fd_pr__pfet_01v8 ad=1.32 pd=8.33 as=1.32 ps=8.33 w=8 l=0.5
X123 CSoutput a_n8964_8799# vdd vdd sky130_fd_pr__pfet_01v8 ad=1.32 pd=8.33 as=1.32 ps=8.33 w=8 l=0.5
X124 CSoutput commonsourceibias gnd gnd sky130_fd_pr__nfet_01v8 ad=1.155 pd=7.33 as=1.155 ps=7.33 w=7 l=1
X125 diffpairibias diffpairibias gnd gnd sky130_fd_pr__nfet_01v8 ad=2.73 pd=14.78 as=2.73 ps=14.78 w=7 l=1
X126 vdd vdd vdd vdd sky130_fd_pr__pfet_01v8 ad=3.51 pd=18.78 as=0 ps=0 w=9 l=0.5
X127 CSoutput a_n8964_8799# vdd vdd sky130_fd_pr__pfet_01v8 ad=1.32 pd=8.33 as=1.32 ps=8.33 w=8 l=0.5
X128 vdd vdd vdd vdd sky130_fd_pr__pfet_01v8 ad=3.51 pd=18.78 as=0 ps=0 w=9 l=0.5
X129 gnd commonsourceibias CSoutput gnd sky130_fd_pr__nfet_01v8 ad=1.155 pd=7.33 as=1.155 ps=7.33 w=7 l=1
X130 CSoutput a_n8964_8799# vdd vdd sky130_fd_pr__pfet_01v8 ad=1.32 pd=8.33 as=1.32 ps=8.33 w=8 l=0.5
X131 vdd a_n8964_8799# CSoutput vdd sky130_fd_pr__pfet_01v8 ad=1.32 pd=8.33 as=1.32 ps=8.33 w=8 l=0.5
X132 vdd a_n2650_13878# a_n2650_8322# vdd sky130_fd_pr__pfet_01v8 ad=1.485 pd=9.33 as=1.485 ps=9.33 w=9 l=0.5
X133 gnd commonsourceibias commonsourceibias gnd sky130_fd_pr__nfet_01v8 ad=1.155 pd=7.33 as=1.155 ps=7.33 w=7 l=1
X134 a_n2650_13878# a_n2650_13878# a_n2472_13878# vdd sky130_fd_pr__pfet_01v8 ad=1.485 pd=9.33 as=1.485 ps=9.33 w=9 l=0.5
X135 vdd vdd vdd vdd sky130_fd_pr__pfet_01v8 ad=3.12 pd=16.78 as=0 ps=0 w=8 l=0.5
X136 CSoutput commonsourceibias gnd gnd sky130_fd_pr__nfet_01v8 ad=1.155 pd=7.33 as=1.155 ps=7.33 w=7 l=1
X137 gnd gnd minus gnd sky130_fd_pr__nfet_01v8 ad=0.165 pd=1.33 as=0.39 ps=2.78 w=1 l=0.5
X138 CSoutput commonsourceibias gnd gnd sky130_fd_pr__nfet_01v8 ad=1.155 pd=7.33 as=1.155 ps=7.33 w=7 l=1
X139 a_n2650_8322# a_n2650_13878# vdd vdd sky130_fd_pr__pfet_01v8 ad=1.485 pd=9.33 as=1.485 ps=9.33 w=9 l=0.5
X140 CSoutput a_n8964_8799# vdd vdd sky130_fd_pr__pfet_01v8 ad=1.32 pd=8.33 as=1.32 ps=8.33 w=8 l=0.5
X141 a_n3827_n3924# diffpairibias gnd gnd sky130_fd_pr__nfet_01v8 ad=2.73 pd=14.78 as=2.73 ps=14.78 w=7 l=1
X142 gnd commonsourceibias CSoutput gnd sky130_fd_pr__nfet_01v8 ad=1.155 pd=7.33 as=1.155 ps=7.33 w=7 l=1
X143 gnd gnd gnd gnd sky130_fd_pr__nfet_01v8 ad=2.73 pd=14.78 as=0 ps=0 w=7 l=0.9
X144 commonsourceibias commonsourceibias gnd gnd sky130_fd_pr__nfet_01v8 ad=1.155 pd=7.33 as=2.73 ps=14.78 w=7 l=1
X145 vdd a_n2650_13878# a_n2472_13878# vdd sky130_fd_pr__pfet_01v8 ad=1.485 pd=9.33 as=1.485 ps=9.33 w=9 l=0.5
X146 gnd commonsourceibias CSoutput gnd sky130_fd_pr__nfet_01v8 ad=1.155 pd=7.33 as=1.155 ps=7.33 w=7 l=1
X147 commonsourceibias commonsourceibias gnd gnd sky130_fd_pr__nfet_01v8 ad=1.155 pd=7.33 as=1.155 ps=7.33 w=7 l=1
X148 vdd vdd vdd vdd sky130_fd_pr__pfet_01v8 ad=3.12 pd=16.78 as=0 ps=0 w=8 l=0.5
X149 vdd vdd vdd vdd sky130_fd_pr__pfet_01v8 ad=3.51 pd=18.78 as=0 ps=0 w=9 l=0.5
X150 gnd commonsourceibias commonsourceibias gnd sky130_fd_pr__nfet_01v8 ad=1.155 pd=7.33 as=1.155 ps=7.33 w=7 l=1
X151 output CSoutput vdd gnd sky130_fd_pr__nfet_01v8 ad=0.825 pd=5.33 as=0.825 ps=5.33 w=5 l=1
X152 CSoutput commonsourceibias gnd gnd sky130_fd_pr__nfet_01v8 ad=1.155 pd=7.33 as=1.155 ps=7.33 w=7 l=1
X153 gnd commonsourceibias CSoutput gnd sky130_fd_pr__nfet_01v8 ad=1.155 pd=7.33 as=1.155 ps=7.33 w=7 l=1
X154 vdd a_n8964_8799# CSoutput vdd sky130_fd_pr__pfet_01v8 ad=1.32 pd=8.33 as=1.32 ps=8.33 w=8 l=0.5
X155 vdd a_n8964_8799# CSoutput vdd sky130_fd_pr__pfet_01v8 ad=1.32 pd=8.33 as=1.32 ps=8.33 w=8 l=0.5
X156 CSoutput commonsourceibias gnd gnd sky130_fd_pr__nfet_01v8 ad=1.155 pd=7.33 as=1.155 ps=7.33 w=7 l=1
X157 a_n8964_8799# plus a_n3827_n3924# gnd sky130_fd_pr__nfet_01v8 ad=1.155 pd=7.33 as=2.73 ps=14.78 w=7 l=0.9
X158 commonsourceibias commonsourceibias gnd gnd sky130_fd_pr__nfet_01v8 ad=1.155 pd=7.33 as=1.155 ps=7.33 w=7 l=1
X159 vdd vdd vdd vdd sky130_fd_pr__pfet_01v8 ad=3.51 pd=18.78 as=0 ps=0 w=9 l=0.5
X160 a_n2650_8322# a_n2650_13878# vdd vdd sky130_fd_pr__pfet_01v8 ad=3.51 pd=18.78 as=1.485 ps=9.33 w=9 l=0.5
X161 a_n8964_8799# a_n2650_13878# a_n2650_8322# vdd sky130_fd_pr__pfet_01v8 ad=1.485 pd=9.33 as=1.485 ps=9.33 w=9 l=0.5
X162 gnd commonsourceibias CSoutput gnd sky130_fd_pr__nfet_01v8 ad=1.155 pd=7.33 as=1.155 ps=7.33 w=7 l=1
X163 a_n8964_8799# plus a_n3827_n3924# gnd sky130_fd_pr__nfet_01v8 ad=1.155 pd=7.33 as=2.73 ps=14.78 w=7 l=0.9
X164 CSoutput a_n8964_8799# vdd vdd sky130_fd_pr__pfet_01v8 ad=1.32 pd=8.33 as=1.32 ps=8.33 w=8 l=0.5
X165 diffpairibias diffpairibias gnd gnd sky130_fd_pr__nfet_01v8 ad=2.73 pd=14.78 as=2.73 ps=14.78 w=7 l=1
X166 CSoutput a_n2650_8322# sky130_fd_pr__cap_mim_m3_1 l=12 w=12
X167 vdd a_n8964_8799# CSoutput vdd sky130_fd_pr__pfet_01v8 ad=1.32 pd=8.33 as=1.32 ps=8.33 w=8 l=0.5
X168 a_n2650_13878# a_n2650_13878# a_n2472_13878# vdd sky130_fd_pr__pfet_01v8 ad=1.485 pd=9.33 as=1.485 ps=9.33 w=9 l=0.5
X169 vdd a_n8964_8799# CSoutput vdd sky130_fd_pr__pfet_01v8 ad=1.32 pd=8.33 as=1.32 ps=8.33 w=8 l=0.5
X170 a_n8964_8799# a_n2650_13878# a_n2650_8322# vdd sky130_fd_pr__pfet_01v8 ad=1.485 pd=9.33 as=1.485 ps=9.33 w=9 l=0.5
X171 CSoutput a_n8964_8799# vdd vdd sky130_fd_pr__pfet_01v8 ad=1.32 pd=8.33 as=1.32 ps=8.33 w=8 l=0.5
X172 CSoutput a_n8964_8799# vdd vdd sky130_fd_pr__pfet_01v8 ad=1.32 pd=8.33 as=1.32 ps=8.33 w=8 l=0.5
X173 CSoutput a_n8964_8799# vdd vdd sky130_fd_pr__pfet_01v8 ad=1.32 pd=8.33 as=1.32 ps=8.33 w=8 l=0.5
X174 gnd commonsourceibias commonsourceibias gnd sky130_fd_pr__nfet_01v8 ad=1.155 pd=7.33 as=1.155 ps=7.33 w=7 l=1
X175 a_n2472_13878# a_n2650_13878# a_n2650_13878# vdd sky130_fd_pr__pfet_01v8 ad=1.485 pd=9.33 as=1.485 ps=9.33 w=9 l=0.5
X176 commonsourceibias commonsourceibias gnd gnd sky130_fd_pr__nfet_01v8 ad=1.155 pd=7.33 as=1.155 ps=7.33 w=7 l=1
X177 gnd gnd gnd gnd sky130_fd_pr__nfet_01v8 ad=2.73 pd=14.78 as=0 ps=0 w=7 l=0.9
X178 gnd commonsourceibias CSoutput gnd sky130_fd_pr__nfet_01v8 ad=1.155 pd=7.33 as=1.155 ps=7.33 w=7 l=1
X179 vdd vdd vdd vdd sky130_fd_pr__pfet_01v8 ad=3.12 pd=16.78 as=0 ps=0 w=8 l=0.5
X180 gnd gnd gnd gnd sky130_fd_pr__nfet_01v8 ad=2.73 pd=14.78 as=0 ps=0 w=7 l=1
X181 output CSoutput vdd gnd sky130_fd_pr__nfet_01v8 ad=0.825 pd=5.33 as=0.825 ps=5.33 w=5 l=1
X182 vdd vdd vdd vdd sky130_fd_pr__pfet_01v8 ad=3.12 pd=16.78 as=0 ps=0 w=8 l=0.5
X183 gnd commonsourceibias CSoutput gnd sky130_fd_pr__nfet_01v8 ad=1.155 pd=7.33 as=1.155 ps=7.33 w=7 l=1
X184 CSoutput a_n8964_8799# vdd vdd sky130_fd_pr__pfet_01v8 ad=1.32 pd=8.33 as=1.32 ps=8.33 w=8 l=0.5
X185 vdd a_n2650_13878# a_n2650_8322# vdd sky130_fd_pr__pfet_01v8 ad=1.485 pd=9.33 as=3.51 ps=18.78 w=9 l=0.5
X186 a_n2472_13878# a_n2650_13878# a_n2650_13878# vdd sky130_fd_pr__pfet_01v8 ad=1.485 pd=9.33 as=1.485 ps=9.33 w=9 l=0.5
X187 output outputibias gnd gnd sky130_fd_pr__nfet_01v8 ad=2.34 pd=12.78 as=2.34 ps=12.78 w=6 l=2
X188 vdd a_n8964_8799# CSoutput vdd sky130_fd_pr__pfet_01v8 ad=1.32 pd=8.33 as=1.32 ps=8.33 w=8 l=0.5
X189 vdd a_n8964_8799# CSoutput vdd sky130_fd_pr__pfet_01v8 ad=3.12 pd=16.78 as=1.32 ps=8.33 w=8 l=0.5
X190 a_n2650_13878# minus a_n3827_n3924# gnd sky130_fd_pr__nfet_01v8 ad=1.155 pd=7.33 as=1.155 ps=7.33 w=7 l=0.9
X191 a_n3827_n3924# plus a_n8964_8799# gnd sky130_fd_pr__nfet_01v8 ad=1.155 pd=7.33 as=1.155 ps=7.33 w=7 l=0.9
X192 vdd vdd vdd vdd sky130_fd_pr__pfet_01v8 ad=3.12 pd=16.78 as=0 ps=0 w=8 l=0.5
X193 a_n2650_13878# a_n2650_13878# a_n2472_13878# vdd sky130_fd_pr__pfet_01v8 ad=1.485 pd=9.33 as=1.485 ps=9.33 w=9 l=0.5
X194 gnd gnd gnd gnd sky130_fd_pr__nfet_01v8 ad=2.73 pd=14.78 as=0 ps=0 w=7 l=1
X195 output CSoutput vdd gnd sky130_fd_pr__nfet_01v8 ad=0.825 pd=5.33 as=0.825 ps=5.33 w=5 l=1
X196 vdd CSoutput output gnd sky130_fd_pr__nfet_01v8 ad=0.825 pd=5.33 as=0.825 ps=5.33 w=5 l=1
X197 CSoutput commonsourceibias gnd gnd sky130_fd_pr__nfet_01v8 ad=1.155 pd=7.33 as=1.155 ps=7.33 w=7 l=1
X198 plus gnd gnd gnd sky130_fd_pr__nfet_01v8 ad=0.165 pd=1.33 as=0.165 ps=1.33 w=1 l=0.5
X199 gnd commonsourceibias CSoutput gnd sky130_fd_pr__nfet_01v8 ad=1.155 pd=7.33 as=1.155 ps=7.33 w=7 l=1
X200 commonsourceibias commonsourceibias gnd gnd sky130_fd_pr__nfet_01v8 ad=1.155 pd=7.33 as=1.155 ps=7.33 w=7 l=1
X201 gnd commonsourceibias CSoutput gnd sky130_fd_pr__nfet_01v8 ad=1.155 pd=7.33 as=1.155 ps=7.33 w=7 l=1
X202 vdd a_n8964_8799# CSoutput vdd sky130_fd_pr__pfet_01v8 ad=1.32 pd=8.33 as=1.32 ps=8.33 w=8 l=0.5
X203 gnd commonsourceibias CSoutput gnd sky130_fd_pr__nfet_01v8 ad=1.155 pd=7.33 as=1.155 ps=7.33 w=7 l=1
X204 a_n3827_n3924# diffpairibias gnd gnd sky130_fd_pr__nfet_01v8 ad=2.73 pd=14.78 as=2.73 ps=14.78 w=7 l=1
X205 gnd gnd minus gnd sky130_fd_pr__nfet_01v8 ad=0.165 pd=1.33 as=0.165 ps=1.33 w=1 l=0.5
X206 a_n3827_n3924# diffpairibias gnd gnd sky130_fd_pr__nfet_01v8 ad=2.73 pd=14.78 as=2.73 ps=14.78 w=7 l=1
X207 a_n8964_8799# plus a_n3827_n3924# gnd sky130_fd_pr__nfet_01v8 ad=1.155 pd=7.33 as=1.155 ps=7.33 w=7 l=0.9
X208 vdd a_n8964_8799# CSoutput vdd sky130_fd_pr__pfet_01v8 ad=3.12 pd=16.78 as=1.32 ps=8.33 w=8 l=0.5
X209 vdd a_n8964_8799# CSoutput vdd sky130_fd_pr__pfet_01v8 ad=1.32 pd=8.33 as=1.32 ps=8.33 w=8 l=0.5
X210 CSoutput a_n8964_8799# vdd vdd sky130_fd_pr__pfet_01v8 ad=1.32 pd=8.33 as=3.12 ps=16.78 w=8 l=0.5
X211 a_n8964_8799# plus a_n3827_n3924# gnd sky130_fd_pr__nfet_01v8 ad=1.155 pd=7.33 as=1.155 ps=7.33 w=7 l=0.9
X212 a_n2472_13878# a_n2650_13878# a_n2650_13878# vdd sky130_fd_pr__pfet_01v8 ad=1.485 pd=9.33 as=1.485 ps=9.33 w=9 l=0.5
X213 vdd vdd vdd vdd sky130_fd_pr__pfet_01v8 ad=3.51 pd=18.78 as=0 ps=0 w=9 l=0.5
X214 CSoutput a_n8964_8799# vdd vdd sky130_fd_pr__pfet_01v8 ad=1.32 pd=8.33 as=1.32 ps=8.33 w=8 l=0.5
X215 CSoutput a_n2650_8322# sky130_fd_pr__cap_mim_m3_1 l=12 w=12
X216 a_n2650_8322# a_n2650_13878# a_n8964_8799# vdd sky130_fd_pr__pfet_01v8 ad=1.485 pd=9.33 as=1.485 ps=9.33 w=9 l=0.5
X217 CSoutput a_n8964_8799# vdd vdd sky130_fd_pr__pfet_01v8 ad=1.32 pd=8.33 as=1.32 ps=8.33 w=8 l=0.5
X218 CSoutput a_n8964_8799# vdd vdd sky130_fd_pr__pfet_01v8 ad=1.32 pd=8.33 as=3.12 ps=16.78 w=8 l=0.5
X219 CSoutput a_n2650_8322# sky130_fd_pr__cap_mim_m3_1 l=12 w=12
X220 CSoutput commonsourceibias gnd gnd sky130_fd_pr__nfet_01v8 ad=1.155 pd=7.33 as=1.155 ps=7.33 w=7 l=1
X221 output CSoutput vdd gnd sky130_fd_pr__nfet_01v8 ad=0.825 pd=5.33 as=0.825 ps=5.33 w=5 l=1
X222 gnd gnd gnd gnd sky130_fd_pr__nfet_01v8 ad=2.73 pd=14.78 as=0 ps=0 w=7 l=1
X223 gnd commonsourceibias CSoutput gnd sky130_fd_pr__nfet_01v8 ad=1.155 pd=7.33 as=1.155 ps=7.33 w=7 l=1
X224 diffpairibias diffpairibias gnd gnd sky130_fd_pr__nfet_01v8 ad=2.73 pd=14.78 as=2.73 ps=14.78 w=7 l=1
X225 gnd gnd gnd gnd sky130_fd_pr__nfet_01v8 ad=2.73 pd=14.78 as=0 ps=0 w=7 l=1
X226 a_n2472_13878# a_n2650_13878# vdd vdd sky130_fd_pr__pfet_01v8 ad=1.485 pd=9.33 as=1.485 ps=9.33 w=9 l=0.5
X227 a_n2650_13878# minus a_n3827_n3924# gnd sky130_fd_pr__nfet_01v8 ad=1.155 pd=7.33 as=1.155 ps=7.33 w=7 l=0.9
X228 vdd a_n2650_13878# a_n2472_13878# vdd sky130_fd_pr__pfet_01v8 ad=1.485 pd=9.33 as=1.485 ps=9.33 w=9 l=0.5
X229 gnd commonsourceibias CSoutput gnd sky130_fd_pr__nfet_01v8 ad=1.155 pd=7.33 as=1.155 ps=7.33 w=7 l=1
X230 CSoutput a_n8964_8799# vdd vdd sky130_fd_pr__pfet_01v8 ad=1.32 pd=8.33 as=1.32 ps=8.33 w=8 l=0.5
X231 gnd commonsourceibias CSoutput gnd sky130_fd_pr__nfet_01v8 ad=1.155 pd=7.33 as=1.155 ps=7.33 w=7 l=1
X232 CSoutput commonsourceibias gnd gnd sky130_fd_pr__nfet_01v8 ad=1.155 pd=7.33 as=2.73 ps=14.78 w=7 l=1
X233 a_n3827_n3924# plus a_n8964_8799# gnd sky130_fd_pr__nfet_01v8 ad=1.155 pd=7.33 as=1.155 ps=7.33 w=7 l=0.9
X234 vdd a_n8964_8799# CSoutput vdd sky130_fd_pr__pfet_01v8 ad=3.12 pd=16.78 as=1.32 ps=8.33 w=8 l=0.5
X235 vdd a_n8964_8799# CSoutput vdd sky130_fd_pr__pfet_01v8 ad=1.32 pd=8.33 as=1.32 ps=8.33 w=8 l=0.5
X236 output CSoutput vdd gnd sky130_fd_pr__nfet_01v8 ad=0.825 pd=5.33 as=0.825 ps=5.33 w=5 l=1
X237 vdd a_n8964_8799# CSoutput vdd sky130_fd_pr__pfet_01v8 ad=1.32 pd=8.33 as=1.32 ps=8.33 w=8 l=0.5
X238 CSoutput a_n8964_8799# vdd vdd sky130_fd_pr__pfet_01v8 ad=1.32 pd=8.33 as=1.32 ps=8.33 w=8 l=0.5
X239 outputibias outputibias gnd gnd sky130_fd_pr__nfet_01v8 ad=2.34 pd=12.78 as=2.34 ps=12.78 w=6 l=2
X240 a_n2472_13878# a_n2650_13878# a_n2650_13878# vdd sky130_fd_pr__pfet_01v8 ad=1.485 pd=9.33 as=1.485 ps=9.33 w=9 l=0.5
X241 diffpairibias diffpairibias gnd gnd sky130_fd_pr__nfet_01v8 ad=2.73 pd=14.78 as=2.73 ps=14.78 w=7 l=1
X242 gnd commonsourceibias CSoutput gnd sky130_fd_pr__nfet_01v8 ad=1.155 pd=7.33 as=1.155 ps=7.33 w=7 l=1
X243 gnd commonsourceibias CSoutput gnd sky130_fd_pr__nfet_01v8 ad=1.155 pd=7.33 as=1.155 ps=7.33 w=7 l=1
X244 vdd a_n8964_8799# CSoutput vdd sky130_fd_pr__pfet_01v8 ad=1.32 pd=8.33 as=1.32 ps=8.33 w=8 l=0.5
X245 commonsourceibias commonsourceibias gnd gnd sky130_fd_pr__nfet_01v8 ad=1.155 pd=7.33 as=1.155 ps=7.33 w=7 l=1
X246 a_n3827_n3924# minus a_n2650_13878# gnd sky130_fd_pr__nfet_01v8 ad=1.155 pd=7.33 as=1.155 ps=7.33 w=7 l=0.9
X247 a_n2650_8322# a_n2650_13878# a_n8964_8799# vdd sky130_fd_pr__pfet_01v8 ad=1.485 pd=9.33 as=1.485 ps=9.33 w=9 l=0.5
X248 CSoutput a_n8964_8799# vdd vdd sky130_fd_pr__pfet_01v8 ad=1.32 pd=8.33 as=1.32 ps=8.33 w=8 l=0.5
X249 diffpairibias diffpairibias gnd gnd sky130_fd_pr__nfet_01v8 ad=2.73 pd=14.78 as=2.73 ps=14.78 w=7 l=1
X250 vdd a_n8964_8799# CSoutput vdd sky130_fd_pr__pfet_01v8 ad=1.32 pd=8.33 as=1.32 ps=8.33 w=8 l=0.5
X251 a_n2472_13878# a_n2650_13878# a_n2650_13878# vdd sky130_fd_pr__pfet_01v8 ad=1.485 pd=9.33 as=3.51 ps=18.78 w=9 l=0.5
X252 vdd a_n2650_13878# a_n2650_8322# vdd sky130_fd_pr__pfet_01v8 ad=1.485 pd=9.33 as=3.51 ps=18.78 w=9 l=0.5
X253 vdd a_n8964_8799# CSoutput vdd sky130_fd_pr__pfet_01v8 ad=1.32 pd=8.33 as=1.32 ps=8.33 w=8 l=0.5
X254 CSoutput commonsourceibias gnd gnd sky130_fd_pr__nfet_01v8 ad=1.155 pd=7.33 as=1.155 ps=7.33 w=7 l=1
X255 plus gnd gnd gnd sky130_fd_pr__nfet_01v8 ad=0.165 pd=1.33 as=0.165 ps=1.33 w=1 l=0.5
X256 gnd gnd minus gnd sky130_fd_pr__nfet_01v8 ad=0.39 pd=2.78 as=0.165 ps=1.33 w=1 l=0.5
X257 gnd gnd gnd gnd sky130_fd_pr__nfet_01v8 ad=2.73 pd=14.78 as=0 ps=0 w=7 l=1
X258 commonsourceibias commonsourceibias gnd gnd sky130_fd_pr__nfet_01v8 ad=1.155 pd=7.33 as=2.73 ps=14.78 w=7 l=1
X259 commonsourceibias commonsourceibias gnd gnd sky130_fd_pr__nfet_01v8 ad=1.155 pd=7.33 as=1.155 ps=7.33 w=7 l=1
X260 CSoutput a_n8964_8799# vdd vdd sky130_fd_pr__pfet_01v8 ad=1.32 pd=8.33 as=1.32 ps=8.33 w=8 l=0.5
X261 gnd gnd gnd gnd sky130_fd_pr__nfet_01v8 ad=2.73 pd=14.78 as=0 ps=0 w=7 l=1
X262 gnd gnd gnd gnd sky130_fd_pr__nfet_01v8 ad=2.73 pd=14.78 as=0 ps=0 w=7 l=1
X263 a_n2472_13878# a_n2650_13878# vdd vdd sky130_fd_pr__pfet_01v8 ad=3.51 pd=18.78 as=1.485 ps=9.33 w=9 l=0.5
X264 vdd vdd vdd vdd sky130_fd_pr__pfet_01v8 ad=3.12 pd=16.78 as=0 ps=0 w=8 l=0.5
X265 vdd CSoutput output gnd sky130_fd_pr__nfet_01v8 ad=0.825 pd=5.33 as=0.825 ps=5.33 w=5 l=1
X266 CSoutput commonsourceibias gnd gnd sky130_fd_pr__nfet_01v8 ad=1.155 pd=7.33 as=1.155 ps=7.33 w=7 l=1
X267 vdd a_n8964_8799# CSoutput vdd sky130_fd_pr__pfet_01v8 ad=1.32 pd=8.33 as=1.32 ps=8.33 w=8 l=0.5
X268 vdd a_n8964_8799# CSoutput vdd sky130_fd_pr__pfet_01v8 ad=3.12 pd=16.78 as=1.32 ps=8.33 w=8 l=0.5
X269 gnd commonsourceibias CSoutput gnd sky130_fd_pr__nfet_01v8 ad=1.155 pd=7.33 as=1.155 ps=7.33 w=7 l=1
X270 CSoutput a_n8964_8799# vdd vdd sky130_fd_pr__pfet_01v8 ad=1.32 pd=8.33 as=1.32 ps=8.33 w=8 l=0.5
X271 CSoutput a_n8964_8799# vdd vdd sky130_fd_pr__pfet_01v8 ad=1.32 pd=8.33 as=1.32 ps=8.33 w=8 l=0.5
X272 gnd commonsourceibias commonsourceibias gnd sky130_fd_pr__nfet_01v8 ad=2.73 pd=14.78 as=1.155 ps=7.33 w=7 l=1
X273 gnd commonsourceibias CSoutput gnd sky130_fd_pr__nfet_01v8 ad=1.155 pd=7.33 as=1.155 ps=7.33 w=7 l=1
X274 CSoutput commonsourceibias gnd gnd sky130_fd_pr__nfet_01v8 ad=1.155 pd=7.33 as=1.155 ps=7.33 w=7 l=1
X275 gnd gnd gnd gnd sky130_fd_pr__nfet_01v8 ad=2.73 pd=14.78 as=0 ps=0 w=7 l=1
X276 CSoutput commonsourceibias gnd gnd sky130_fd_pr__nfet_01v8 ad=1.155 pd=7.33 as=1.155 ps=7.33 w=7 l=1
X277 gnd commonsourceibias CSoutput gnd sky130_fd_pr__nfet_01v8 ad=1.155 pd=7.33 as=1.155 ps=7.33 w=7 l=1
X278 CSoutput commonsourceibias gnd gnd sky130_fd_pr__nfet_01v8 ad=1.155 pd=7.33 as=1.155 ps=7.33 w=7 l=1
X279 vdd a_n8964_8799# CSoutput vdd sky130_fd_pr__pfet_01v8 ad=1.32 pd=8.33 as=1.32 ps=8.33 w=8 l=0.5
X280 gnd gnd gnd gnd sky130_fd_pr__nfet_01v8 ad=2.73 pd=14.78 as=0 ps=0 w=7 l=1
X281 a_n3827_n3924# diffpairibias gnd gnd sky130_fd_pr__nfet_01v8 ad=2.73 pd=14.78 as=2.73 ps=14.78 w=7 l=1
X282 gnd commonsourceibias CSoutput gnd sky130_fd_pr__nfet_01v8 ad=1.155 pd=7.33 as=1.155 ps=7.33 w=7 l=1
X283 a_n2650_8322# a_n2650_13878# a_n8964_8799# vdd sky130_fd_pr__pfet_01v8 ad=1.485 pd=9.33 as=1.485 ps=9.33 w=9 l=0.5
X284 commonsourceibias commonsourceibias gnd gnd sky130_fd_pr__nfet_01v8 ad=1.155 pd=7.33 as=1.155 ps=7.33 w=7 l=1
X285 vdd CSoutput output gnd sky130_fd_pr__nfet_01v8 ad=0.825 pd=5.33 as=0.825 ps=5.33 w=5 l=1
X286 vdd a_n2650_13878# a_n2650_8322# vdd sky130_fd_pr__pfet_01v8 ad=1.485 pd=9.33 as=1.485 ps=9.33 w=9 l=0.5
X287 a_n8964_8799# plus a_n3827_n3924# gnd sky130_fd_pr__nfet_01v8 ad=1.155 pd=7.33 as=1.155 ps=7.33 w=7 l=0.9