* NGSPICE file created from opamp5.ext - technology: sky130A

.subckt opamp5 gnd CSoutput output vdd plus minus commonsourceibias outputibias diffpairibias
X0 gnd.t355 commonsourceibias.t8 commonsourceibias.t9 gnd.t277 sky130_fd_pr__nfet_01v8 ad=1.155 pd=7.33 as=1.155 ps=7.33 w=7 l=1
X1 a_n6972_8799.t32 plus.t5 a_n3827_n3924.t32 gnd.t356 sky130_fd_pr__nfet_01v8 ad=1.155 pd=7.33 as=1.155 ps=7.33 w=7 l=0.7
X2 CSoutput.t47 a_n6972_8799.t44 vdd.t71 vdd.t52 sky130_fd_pr__pfet_01v8 ad=1.32 pd=8.33 as=3.12 ps=16.78 w=8 l=0.5
X3 a_n2472_13878.t27 a_n2650_13878.t64 vdd.t180 vdd.t179 sky130_fd_pr__pfet_01v8 ad=1.485 pd=9.33 as=1.485 ps=9.33 w=9 l=0.5
X4 a_n2472_13878.t19 a_n2650_13878.t39 a_n2650_13878.t40 vdd.t205 sky130_fd_pr__pfet_01v8 ad=1.485 pd=9.33 as=1.485 ps=9.33 w=9 l=0.5
X5 gnd.t195 gnd.t193 gnd.t194 gnd.t149 sky130_fd_pr__nfet_01v8 ad=2.73 pd=14.78 as=0 ps=0 w=7 l=0.7
X6 CSoutput.t143 commonsourceibias.t64 gnd.t354 gnd.t246 sky130_fd_pr__nfet_01v8 ad=1.155 pd=7.33 as=2.73 ps=14.78 w=7 l=1
X7 vdd.t70 a_n6972_8799.t45 CSoutput.t46 vdd.t46 sky130_fd_pr__pfet_01v8 ad=1.32 pd=8.33 as=1.32 ps=8.33 w=8 l=0.5
X8 vdd.t153 vdd.t151 vdd.t152 vdd.t79 sky130_fd_pr__pfet_01v8 ad=3.12 pd=16.78 as=0 ps=0 w=8 l=0.5
X9 commonsourceibias.t7 commonsourceibias.t6 gnd.t353 gnd.t220 sky130_fd_pr__nfet_01v8 ad=1.155 pd=7.33 as=1.155 ps=7.33 w=7 l=1
X10 gnd.t352 commonsourceibias.t65 CSoutput.t142 gnd.t209 sky130_fd_pr__nfet_01v8 ad=1.155 pd=7.33 as=1.155 ps=7.33 w=7 l=1
X11 gnd.t192 gnd.t190 minus.t4 gnd.t191 sky130_fd_pr__nfet_01v8 ad=0.165 pd=1.33 as=0.165 ps=1.33 w=1 l=0.5
X12 gnd.t351 commonsourceibias.t4 commonsourceibias.t5 gnd.t215 sky130_fd_pr__nfet_01v8 ad=1.155 pd=7.33 as=1.155 ps=7.33 w=7 l=1
X13 a_n3827_n3924.t10 diffpairibias.t20 gnd.t31 gnd.t30 sky130_fd_pr__nfet_01v8 ad=2.73 pd=14.78 as=2.73 ps=14.78 w=7 l=1
X14 a_n3827_n3924.t23 plus.t6 a_n6972_8799.t31 gnd.t25 sky130_fd_pr__nfet_01v8 ad=1.155 pd=7.33 as=1.155 ps=7.33 w=7 l=0.7
X15 CSoutput.t45 a_n6972_8799.t46 vdd.t69 vdd.t8 sky130_fd_pr__pfet_01v8 ad=1.32 pd=8.33 as=1.32 ps=8.33 w=8 l=0.5
X16 gnd.t350 commonsourceibias.t2 commonsourceibias.t3 gnd.t196 sky130_fd_pr__nfet_01v8 ad=1.155 pd=7.33 as=1.155 ps=7.33 w=7 l=1
X17 a_n3827_n3924.t6 minus.t5 a_n2650_13878.t4 gnd.t20 sky130_fd_pr__nfet_01v8 ad=1.155 pd=7.33 as=1.155 ps=7.33 w=7 l=0.7
X18 a_n2650_8322.t19 a_n2650_13878.t65 a_n6972_8799.t36 vdd.t181 sky130_fd_pr__pfet_01v8 ad=1.485 pd=9.33 as=1.485 ps=9.33 w=9 l=0.5
X19 commonsourceibias.t1 commonsourceibias.t0 gnd.t349 gnd.t237 sky130_fd_pr__nfet_01v8 ad=1.155 pd=7.33 as=1.155 ps=7.33 w=7 l=1
X20 gnd.t348 commonsourceibias.t66 CSoutput.t141 gnd.t269 sky130_fd_pr__nfet_01v8 ad=1.155 pd=7.33 as=1.155 ps=7.33 w=7 l=1
X21 CSoutput.t44 a_n6972_8799.t47 vdd.t68 vdd.t31 sky130_fd_pr__pfet_01v8 ad=1.32 pd=8.33 as=1.32 ps=8.33 w=8 l=0.5
X22 vdd.t67 a_n6972_8799.t48 CSoutput.t43 vdd.t43 sky130_fd_pr__pfet_01v8 ad=1.32 pd=8.33 as=1.32 ps=8.33 w=8 l=0.5
X23 a_n2650_13878.t50 minus.t6 a_n3827_n3924.t37 gnd.t44 sky130_fd_pr__nfet_01v8 ad=1.155 pd=7.33 as=1.155 ps=7.33 w=7 l=0.7
X24 gnd.t189 gnd.t187 gnd.t188 gnd.t113 sky130_fd_pr__nfet_01v8 ad=2.73 pd=14.78 as=0 ps=0 w=7 l=1
X25 gnd.t186 gnd.t183 gnd.t185 gnd.t184 sky130_fd_pr__nfet_01v8 ad=2.34 pd=12.78 as=0 ps=0 w=6 l=2
X26 a_n6972_8799.t37 a_n2650_13878.t66 a_n2650_8322.t18 vdd.t182 sky130_fd_pr__pfet_01v8 ad=1.485 pd=9.33 as=1.485 ps=9.33 w=9 l=0.5
X27 a_n2650_13878.t3 minus.t7 a_n3827_n3924.t5 gnd.t19 sky130_fd_pr__nfet_01v8 ad=1.155 pd=7.33 as=1.155 ps=7.33 w=7 l=0.7
X28 commonsourceibias.t41 commonsourceibias.t40 gnd.t347 gnd.t275 sky130_fd_pr__nfet_01v8 ad=1.155 pd=7.33 as=1.155 ps=7.33 w=7 l=1
X29 a_n6972_8799.t38 a_n2650_13878.t67 a_n2650_8322.t17 vdd.t172 sky130_fd_pr__pfet_01v8 ad=1.485 pd=9.33 as=3.51 ps=18.78 w=9 l=0.5
X30 gnd.t346 commonsourceibias.t67 CSoutput.t140 gnd.t213 sky130_fd_pr__nfet_01v8 ad=1.155 pd=7.33 as=1.155 ps=7.33 w=7 l=1
X31 CSoutput.t139 commonsourceibias.t68 gnd.t345 gnd.t226 sky130_fd_pr__nfet_01v8 ad=1.155 pd=7.33 as=1.155 ps=7.33 w=7 l=1
X32 a_n3827_n3924.t51 minus.t8 a_n2650_13878.t59 gnd.t357 sky130_fd_pr__nfet_01v8 ad=2.73 pd=14.78 as=1.155 ps=7.33 w=7 l=0.7
X33 gnd.t344 commonsourceibias.t38 commonsourceibias.t39 gnd.t269 sky130_fd_pr__nfet_01v8 ad=1.155 pd=7.33 as=1.155 ps=7.33 w=7 l=1
X34 CSoutput.t144 a_n2650_8322.t33 sky130_fd_pr__cap_mim_m3_1 l=12 w=12
X35 CSoutput.t138 commonsourceibias.t69 gnd.t340 gnd.t282 sky130_fd_pr__nfet_01v8 ad=1.155 pd=7.33 as=1.155 ps=7.33 w=7 l=1
X36 CSoutput.t42 a_n6972_8799.t49 vdd.t66 vdd.t52 sky130_fd_pr__pfet_01v8 ad=1.32 pd=8.33 as=3.12 ps=16.78 w=8 l=0.5
X37 a_n3827_n3924.t56 diffpairibias.t21 gnd.t375 gnd.t374 sky130_fd_pr__nfet_01v8 ad=2.73 pd=14.78 as=2.73 ps=14.78 w=7 l=1
X38 commonsourceibias.t37 commonsourceibias.t36 gnd.t343 gnd.t203 sky130_fd_pr__nfet_01v8 ad=1.155 pd=7.33 as=1.155 ps=7.33 w=7 l=1
X39 vdd.t150 vdd.t148 vdd.t149 vdd.t79 sky130_fd_pr__pfet_01v8 ad=3.12 pd=16.78 as=0 ps=0 w=8 l=0.5
X40 CSoutput.t137 commonsourceibias.t70 gnd.t342 gnd.t282 sky130_fd_pr__nfet_01v8 ad=1.155 pd=7.33 as=1.155 ps=7.33 w=7 l=1
X41 CSoutput.t41 a_n6972_8799.t50 vdd.t65 vdd.t8 sky130_fd_pr__pfet_01v8 ad=1.32 pd=8.33 as=1.32 ps=8.33 w=8 l=0.5
X42 a_n3827_n3924.t16 plus.t7 a_n6972_8799.t30 gnd.t0 sky130_fd_pr__nfet_01v8 ad=1.155 pd=7.33 as=1.155 ps=7.33 w=7 l=0.7
X43 gnd.t341 commonsourceibias.t34 commonsourceibias.t35 gnd.t264 sky130_fd_pr__nfet_01v8 ad=1.155 pd=7.33 as=1.155 ps=7.33 w=7 l=1
X44 CSoutput.t136 commonsourceibias.t71 gnd.t339 gnd.t198 sky130_fd_pr__nfet_01v8 ad=1.155 pd=7.33 as=2.73 ps=14.78 w=7 l=1
X45 vdd.t147 vdd.t145 vdd.t146 vdd.t95 sky130_fd_pr__pfet_01v8 ad=3.51 pd=18.78 as=0 ps=0 w=9 l=0.5
X46 a_n2472_13878.t18 a_n2650_13878.t9 a_n2650_13878.t10 vdd.t0 sky130_fd_pr__pfet_01v8 ad=1.485 pd=9.33 as=1.485 ps=9.33 w=9 l=0.5
X47 a_n6972_8799.t29 plus.t8 a_n3827_n3924.t21 gnd.t23 sky130_fd_pr__nfet_01v8 ad=1.155 pd=7.33 as=2.73 ps=14.78 w=7 l=0.7
X48 output.t19 outputibias.t8 gnd.t11 gnd.t10 sky130_fd_pr__nfet_01v8 ad=2.34 pd=12.78 as=2.34 ps=12.78 w=6 l=2
X49 a_n2650_13878.t30 a_n2650_13878.t29 a_n2472_13878.t17 vdd.t77 sky130_fd_pr__pfet_01v8 ad=1.485 pd=9.33 as=1.485 ps=9.33 w=9 l=0.5
X50 CSoutput.t145 a_n2650_8322.t32 sky130_fd_pr__cap_mim_m3_1 l=12 w=12
X51 a_n6972_8799.t28 plus.t9 a_n3827_n3924.t12 gnd.t17 sky130_fd_pr__nfet_01v8 ad=1.155 pd=7.33 as=1.155 ps=7.33 w=7 l=0.7
X52 CSoutput.t40 a_n6972_8799.t51 vdd.t64 vdd.t31 sky130_fd_pr__pfet_01v8 ad=1.32 pd=8.33 as=1.32 ps=8.33 w=8 l=0.5
X53 vdd.t144 vdd.t142 vdd.t143 vdd.t125 sky130_fd_pr__pfet_01v8 ad=3.51 pd=18.78 as=0 ps=0 w=9 l=0.5
X54 vdd.t63 a_n6972_8799.t52 CSoutput.t39 vdd.t43 sky130_fd_pr__pfet_01v8 ad=1.32 pd=8.33 as=1.32 ps=8.33 w=8 l=0.5
X55 vdd.t163 CSoutput.t146 output.t15 gnd.t43 sky130_fd_pr__nfet_01v8 ad=0.825 pd=5.33 as=0.825 ps=5.33 w=5 l=1
X56 diffpairibias.t19 diffpairibias.t18 gnd.t365 gnd.t364 sky130_fd_pr__nfet_01v8 ad=2.73 pd=14.78 as=2.73 ps=14.78 w=7 l=1
X57 CSoutput.t135 commonsourceibias.t72 gnd.t338 gnd.t244 sky130_fd_pr__nfet_01v8 ad=1.155 pd=7.33 as=1.155 ps=7.33 w=7 l=1
X58 a_n3827_n3924.t33 plus.t10 a_n6972_8799.t27 gnd.t4 sky130_fd_pr__nfet_01v8 ad=1.155 pd=7.33 as=1.155 ps=7.33 w=7 l=0.7
X59 a_n2650_13878.t62 minus.t9 a_n3827_n3924.t54 gnd.t52 sky130_fd_pr__nfet_01v8 ad=1.155 pd=7.33 as=1.155 ps=7.33 w=7 l=0.7
X60 a_n2650_13878.t20 a_n2650_13878.t19 a_n2472_13878.t16 vdd.t187 sky130_fd_pr__pfet_01v8 ad=1.485 pd=9.33 as=1.485 ps=9.33 w=9 l=0.5
X61 CSoutput.t134 commonsourceibias.t73 gnd.t337 gnd.t290 sky130_fd_pr__nfet_01v8 ad=1.155 pd=7.33 as=1.155 ps=7.33 w=7 l=1
X62 CSoutput.t133 commonsourceibias.t74 gnd.t336 gnd.t262 sky130_fd_pr__nfet_01v8 ad=1.155 pd=7.33 as=1.155 ps=7.33 w=7 l=1
X63 a_n6972_8799.t33 a_n2650_13878.t68 a_n2650_8322.t16 vdd.t173 sky130_fd_pr__pfet_01v8 ad=1.485 pd=9.33 as=1.485 ps=9.33 w=9 l=0.5
X64 CSoutput.t38 a_n6972_8799.t53 vdd.t62 vdd.t50 sky130_fd_pr__pfet_01v8 ad=1.32 pd=8.33 as=1.32 ps=8.33 w=8 l=0.5
X65 commonsourceibias.t33 commonsourceibias.t32 gnd.t335 gnd.t246 sky130_fd_pr__nfet_01v8 ad=1.155 pd=7.33 as=2.73 ps=14.78 w=7 l=1
X66 gnd.t182 gnd.t180 plus.t4 gnd.t181 sky130_fd_pr__nfet_01v8 ad=0.39 pd=2.78 as=0.165 ps=1.33 w=1 l=0.5
X67 a_n2650_13878.t46 a_n2650_13878.t45 a_n2472_13878.t15 vdd.t203 sky130_fd_pr__pfet_01v8 ad=3.51 pd=18.78 as=1.485 ps=9.33 w=9 l=0.5
X68 gnd.t179 gnd.t177 gnd.t178 gnd.t80 sky130_fd_pr__nfet_01v8 ad=2.73 pd=14.78 as=0 ps=0 w=7 l=1
X69 vdd.t61 a_n6972_8799.t54 CSoutput.t37 vdd.t14 sky130_fd_pr__pfet_01v8 ad=1.32 pd=8.33 as=1.32 ps=8.33 w=8 l=0.5
X70 a_n6972_8799.t34 a_n2650_13878.t69 a_n2650_8322.t15 vdd.t174 sky130_fd_pr__pfet_01v8 ad=1.485 pd=9.33 as=3.51 ps=18.78 w=9 l=0.5
X71 diffpairibias.t17 diffpairibias.t16 gnd.t359 gnd.t358 sky130_fd_pr__nfet_01v8 ad=2.73 pd=14.78 as=2.73 ps=14.78 w=7 l=1
X72 CSoutput.t36 a_n6972_8799.t55 vdd.t60 vdd.t20 sky130_fd_pr__pfet_01v8 ad=1.32 pd=8.33 as=3.12 ps=16.78 w=8 l=0.5
X73 gnd.t176 gnd.t174 gnd.t175 gnd.t80 sky130_fd_pr__nfet_01v8 ad=2.73 pd=14.78 as=0 ps=0 w=7 l=1
X74 a_n2650_8322.t14 a_n2650_13878.t70 a_n6972_8799.t39 vdd.t203 sky130_fd_pr__pfet_01v8 ad=3.51 pd=18.78 as=1.485 ps=9.33 w=9 l=0.5
X75 CSoutput.t132 commonsourceibias.t75 gnd.t334 gnd.t262 sky130_fd_pr__nfet_01v8 ad=1.155 pd=7.33 as=1.155 ps=7.33 w=7 l=1
X76 gnd.t333 commonsourceibias.t76 CSoutput.t131 gnd.t240 sky130_fd_pr__nfet_01v8 ad=1.155 pd=7.33 as=1.155 ps=7.33 w=7 l=1
X77 gnd.t173 gnd.t171 gnd.t172 gnd.t95 sky130_fd_pr__nfet_01v8 ad=2.73 pd=14.78 as=0 ps=0 w=7 l=0.7
X78 gnd.t170 gnd.t167 gnd.t169 gnd.t168 sky130_fd_pr__nfet_01v8 ad=2.34 pd=12.78 as=0 ps=0 w=6 l=2
X79 gnd.t163 gnd.t161 plus.t3 gnd.t162 sky130_fd_pr__nfet_01v8 ad=0.165 pd=1.33 as=0.165 ps=1.33 w=1 l=0.5
X80 CSoutput.t130 commonsourceibias.t77 gnd.t332 gnd.t258 sky130_fd_pr__nfet_01v8 ad=1.155 pd=7.33 as=1.155 ps=7.33 w=7 l=1
X81 gnd.t331 commonsourceibias.t78 CSoutput.t129 gnd.t222 sky130_fd_pr__nfet_01v8 ad=2.73 pd=14.78 as=1.155 ps=7.33 w=7 l=1
X82 a_n3827_n3924.t19 plus.t11 a_n6972_8799.t26 gnd.t42 sky130_fd_pr__nfet_01v8 ad=1.155 pd=7.33 as=1.155 ps=7.33 w=7 l=0.7
X83 gnd.t166 gnd.t164 gnd.t165 gnd.t113 sky130_fd_pr__nfet_01v8 ad=2.73 pd=14.78 as=0 ps=0 w=7 l=1
X84 a_n3827_n3924.t41 diffpairibias.t22 gnd.t62 gnd.t61 sky130_fd_pr__nfet_01v8 ad=2.73 pd=14.78 as=2.73 ps=14.78 w=7 l=1
X85 CSoutput.t128 commonsourceibias.t79 gnd.t330 gnd.t207 sky130_fd_pr__nfet_01v8 ad=1.155 pd=7.33 as=1.155 ps=7.33 w=7 l=1
X86 a_n2650_13878.t42 a_n2650_13878.t41 a_n2472_13878.t14 vdd.t181 sky130_fd_pr__pfet_01v8 ad=1.485 pd=9.33 as=1.485 ps=9.33 w=9 l=0.5
X87 vdd.t59 a_n6972_8799.t56 CSoutput.t35 vdd.t33 sky130_fd_pr__pfet_01v8 ad=3.12 pd=16.78 as=1.32 ps=8.33 w=8 l=0.5
X88 a_n6972_8799.t40 a_n2650_13878.t71 a_n2650_8322.t13 vdd.t7 sky130_fd_pr__pfet_01v8 ad=1.485 pd=9.33 as=1.485 ps=9.33 w=9 l=0.5
X89 a_n2650_13878.t24 a_n2650_13878.t23 a_n2472_13878.t13 vdd.t4 sky130_fd_pr__pfet_01v8 ad=3.51 pd=18.78 as=1.485 ps=9.33 w=9 l=0.5
X90 outputibias.t7 outputibias.t6 gnd.t47 gnd.t46 sky130_fd_pr__nfet_01v8 ad=2.34 pd=12.78 as=2.34 ps=12.78 w=6 l=2
X91 commonsourceibias.t49 commonsourceibias.t48 gnd.t329 gnd.t226 sky130_fd_pr__nfet_01v8 ad=1.155 pd=7.33 as=1.155 ps=7.33 w=7 l=1
X92 gnd.t328 commonsourceibias.t80 CSoutput.t127 gnd.t201 sky130_fd_pr__nfet_01v8 ad=1.155 pd=7.33 as=1.155 ps=7.33 w=7 l=1
X93 gnd.t160 gnd.t158 gnd.t159 gnd.t84 sky130_fd_pr__nfet_01v8 ad=2.73 pd=14.78 as=0 ps=0 w=7 l=1
X94 CSoutput.t126 commonsourceibias.t81 gnd.t327 gnd.t220 sky130_fd_pr__nfet_01v8 ad=1.155 pd=7.33 as=1.155 ps=7.33 w=7 l=1
X95 gnd.t326 commonsourceibias.t46 commonsourceibias.t47 gnd.t224 sky130_fd_pr__nfet_01v8 ad=1.155 pd=7.33 as=1.155 ps=7.33 w=7 l=1
X96 vdd.t58 a_n6972_8799.t57 CSoutput.t34 vdd.t18 sky130_fd_pr__pfet_01v8 ad=1.32 pd=8.33 as=1.32 ps=8.33 w=8 l=0.5
X97 CSoutput.t125 commonsourceibias.t82 gnd.t325 gnd.t282 sky130_fd_pr__nfet_01v8 ad=1.155 pd=7.33 as=1.155 ps=7.33 w=7 l=1
X98 CSoutput.t33 a_n6972_8799.t58 vdd.t57 vdd.t36 sky130_fd_pr__pfet_01v8 ad=1.32 pd=8.33 as=1.32 ps=8.33 w=8 l=0.5
X99 diffpairibias.t15 diffpairibias.t14 gnd.t58 gnd.t57 sky130_fd_pr__nfet_01v8 ad=2.73 pd=14.78 as=2.73 ps=14.78 w=7 l=1
X100 a_n2650_13878.t58 minus.t10 a_n3827_n3924.t50 gnd.t1 sky130_fd_pr__nfet_01v8 ad=1.155 pd=7.33 as=1.155 ps=7.33 w=7 l=0.7
X101 vdd.t141 vdd.t139 vdd.t140 vdd.t129 sky130_fd_pr__pfet_01v8 ad=3.51 pd=18.78 as=0 ps=0 w=9 l=0.5
X102 CSoutput.t32 a_n6972_8799.t59 vdd.t49 vdd.t20 sky130_fd_pr__pfet_01v8 ad=1.32 pd=8.33 as=3.12 ps=16.78 w=8 l=0.5
X103 vdd.t138 vdd.t135 vdd.t137 vdd.t136 sky130_fd_pr__pfet_01v8 ad=3.51 pd=18.78 as=0 ps=0 w=9 l=0.5
X104 gnd.t324 commonsourceibias.t83 CSoutput.t124 gnd.t230 sky130_fd_pr__nfet_01v8 ad=2.73 pd=14.78 as=1.155 ps=7.33 w=7 l=1
X105 a_n3827_n3924.t4 minus.t11 a_n2650_13878.t2 gnd.t18 sky130_fd_pr__nfet_01v8 ad=1.155 pd=7.33 as=1.155 ps=7.33 w=7 l=0.7
X106 vdd.t200 a_n2650_13878.t72 a_n2650_8322.t27 vdd.t199 sky130_fd_pr__pfet_01v8 ad=1.485 pd=9.33 as=1.485 ps=9.33 w=9 l=0.5
X107 gnd.t323 commonsourceibias.t44 commonsourceibias.t45 gnd.t217 sky130_fd_pr__nfet_01v8 ad=1.155 pd=7.33 as=1.155 ps=7.33 w=7 l=1
X108 a_n2650_13878.t26 a_n2650_13878.t25 a_n2472_13878.t12 vdd.t75 sky130_fd_pr__pfet_01v8 ad=1.485 pd=9.33 as=1.485 ps=9.33 w=9 l=0.5
X109 CSoutput.t123 commonsourceibias.t84 gnd.t322 gnd.t233 sky130_fd_pr__nfet_01v8 ad=1.155 pd=7.33 as=1.155 ps=7.33 w=7 l=1
X110 vdd.t134 vdd.t132 vdd.t133 vdd.t112 sky130_fd_pr__pfet_01v8 ad=3.12 pd=16.78 as=0 ps=0 w=8 l=0.5
X111 output.t14 CSoutput.t147 vdd.t154 gnd.t27 sky130_fd_pr__nfet_01v8 ad=0.825 pd=5.33 as=0.825 ps=5.33 w=5 l=1
X112 CSoutput.t122 commonsourceibias.t85 gnd.t321 gnd.t275 sky130_fd_pr__nfet_01v8 ad=1.155 pd=7.33 as=1.155 ps=7.33 w=7 l=1
X113 a_n2650_8322.t26 a_n2650_13878.t73 vdd.t202 vdd.t201 sky130_fd_pr__pfet_01v8 ad=1.485 pd=9.33 as=1.485 ps=9.33 w=9 l=0.5
X114 a_n3827_n3924.t47 diffpairibias.t23 gnd.t361 gnd.t360 sky130_fd_pr__nfet_01v8 ad=2.73 pd=14.78 as=2.73 ps=14.78 w=7 l=1
X115 gnd.t320 commonsourceibias.t86 CSoutput.t121 gnd.t277 sky130_fd_pr__nfet_01v8 ad=1.155 pd=7.33 as=1.155 ps=7.33 w=7 l=1
X116 a_n3827_n3924.t36 minus.t12 a_n2650_13878.t49 gnd.t37 sky130_fd_pr__nfet_01v8 ad=1.155 pd=7.33 as=1.155 ps=7.33 w=7 l=0.7
X117 a_n3827_n3924.t49 minus.t13 a_n2650_13878.t57 gnd.t7 sky130_fd_pr__nfet_01v8 ad=2.73 pd=14.78 as=1.155 ps=7.33 w=7 l=0.7
X118 commonsourceibias.t43 commonsourceibias.t42 gnd.t319 gnd.t198 sky130_fd_pr__nfet_01v8 ad=1.155 pd=7.33 as=2.73 ps=14.78 w=7 l=1
X119 vdd.t196 a_n2650_13878.t74 a_n2472_13878.t26 vdd.t195 sky130_fd_pr__pfet_01v8 ad=1.485 pd=9.33 as=1.485 ps=9.33 w=9 l=0.5
X120 gnd.t318 commonsourceibias.t87 CSoutput.t120 gnd.t255 sky130_fd_pr__nfet_01v8 ad=1.155 pd=7.33 as=1.155 ps=7.33 w=7 l=1
X121 a_n2650_13878.t61 minus.t14 a_n3827_n3924.t53 gnd.t74 sky130_fd_pr__nfet_01v8 ad=1.155 pd=7.33 as=1.155 ps=7.33 w=7 l=0.7
X122 a_n3827_n3924.t26 plus.t12 a_n6972_8799.t25 gnd.t53 sky130_fd_pr__nfet_01v8 ad=1.155 pd=7.33 as=1.155 ps=7.33 w=7 l=0.7
X123 a_n3827_n3924.t35 plus.t13 a_n6972_8799.t24 gnd.t56 sky130_fd_pr__nfet_01v8 ad=1.155 pd=7.33 as=1.155 ps=7.33 w=7 l=0.7
X124 gnd.t317 commonsourceibias.t54 commonsourceibias.t55 gnd.t213 sky130_fd_pr__nfet_01v8 ad=1.155 pd=7.33 as=1.155 ps=7.33 w=7 l=1
X125 output.t13 CSoutput.t148 vdd.t155 gnd.t28 sky130_fd_pr__nfet_01v8 ad=0.825 pd=5.33 as=0.825 ps=5.33 w=5 l=1
X126 vdd.t131 vdd.t128 vdd.t130 vdd.t129 sky130_fd_pr__pfet_01v8 ad=3.51 pd=18.78 as=0 ps=0 w=9 l=0.5
X127 CSoutput.t119 commonsourceibias.t88 gnd.t316 gnd.t244 sky130_fd_pr__nfet_01v8 ad=1.155 pd=7.33 as=1.155 ps=7.33 w=7 l=1
X128 gnd.t315 commonsourceibias.t89 CSoutput.t118 gnd.t209 sky130_fd_pr__nfet_01v8 ad=1.155 pd=7.33 as=1.155 ps=7.33 w=7 l=1
X129 a_n2650_13878.t6 minus.t15 a_n3827_n3924.t8 gnd.t24 sky130_fd_pr__nfet_01v8 ad=1.155 pd=7.33 as=1.155 ps=7.33 w=7 l=0.7
X130 gnd.t157 gnd.t155 plus.t2 gnd.t156 sky130_fd_pr__nfet_01v8 ad=0.165 pd=1.33 as=0.39 ps=2.78 w=1 l=0.5
X131 CSoutput.t117 commonsourceibias.t90 gnd.t312 gnd.t258 sky130_fd_pr__nfet_01v8 ad=1.155 pd=7.33 as=1.155 ps=7.33 w=7 l=1
X132 a_n6972_8799.t23 plus.t14 a_n3827_n3924.t31 gnd.t26 sky130_fd_pr__nfet_01v8 ad=1.155 pd=7.33 as=1.155 ps=7.33 w=7 l=0.7
X133 a_n6972_8799.t22 plus.t15 a_n3827_n3924.t22 gnd.t16 sky130_fd_pr__nfet_01v8 ad=1.155 pd=7.33 as=2.73 ps=14.78 w=7 l=0.7
X134 commonsourceibias.t53 commonsourceibias.t52 gnd.t314 gnd.t205 sky130_fd_pr__nfet_01v8 ad=1.155 pd=7.33 as=1.155 ps=7.33 w=7 l=1
X135 vdd.t127 vdd.t124 vdd.t126 vdd.t125 sky130_fd_pr__pfet_01v8 ad=3.51 pd=18.78 as=0 ps=0 w=9 l=0.5
X136 a_n2650_8322.t25 a_n2650_13878.t75 vdd.t198 vdd.t197 sky130_fd_pr__pfet_01v8 ad=3.51 pd=18.78 as=1.485 ps=9.33 w=9 l=0.5
X137 gnd.t313 commonsourceibias.t91 CSoutput.t116 gnd.t228 sky130_fd_pr__nfet_01v8 ad=1.155 pd=7.33 as=1.155 ps=7.33 w=7 l=1
X138 a_n6972_8799.t41 a_n2650_13878.t76 a_n2650_8322.t12 vdd.t204 sky130_fd_pr__pfet_01v8 ad=1.485 pd=9.33 as=1.485 ps=9.33 w=9 l=0.5
X139 gnd.t154 gnd.t152 gnd.t153 gnd.t99 sky130_fd_pr__nfet_01v8 ad=2.73 pd=14.78 as=0 ps=0 w=7 l=1
X140 diffpairibias.t13 diffpairibias.t12 gnd.t367 gnd.t366 sky130_fd_pr__nfet_01v8 ad=2.73 pd=14.78 as=2.73 ps=14.78 w=7 l=1
X141 a_n2650_13878.t48 minus.t16 a_n3827_n3924.t11 gnd.t32 sky130_fd_pr__nfet_01v8 ad=1.155 pd=7.33 as=1.155 ps=7.33 w=7 l=0.7
X142 a_n2650_13878.t14 a_n2650_13878.t13 a_n2472_13878.t11 vdd.t76 sky130_fd_pr__pfet_01v8 ad=1.485 pd=9.33 as=1.485 ps=9.33 w=9 l=0.5
X143 vdd.t56 a_n6972_8799.t60 CSoutput.t31 vdd.t18 sky130_fd_pr__pfet_01v8 ad=1.32 pd=8.33 as=1.32 ps=8.33 w=8 l=0.5
X144 a_n6972_8799.t42 a_n2650_13878.t77 a_n2650_8322.t11 vdd.t205 sky130_fd_pr__pfet_01v8 ad=1.485 pd=9.33 as=1.485 ps=9.33 w=9 l=0.5
X145 CSoutput.t30 a_n6972_8799.t61 vdd.t48 vdd.t36 sky130_fd_pr__pfet_01v8 ad=1.32 pd=8.33 as=1.32 ps=8.33 w=8 l=0.5
X146 gnd.t311 commonsourceibias.t50 commonsourceibias.t51 gnd.t209 sky130_fd_pr__nfet_01v8 ad=1.155 pd=7.33 as=1.155 ps=7.33 w=7 l=1
X147 a_n2472_13878.t10 a_n2650_13878.t17 a_n2650_13878.t18 vdd.t7 sky130_fd_pr__pfet_01v8 ad=1.485 pd=9.33 as=1.485 ps=9.33 w=9 l=0.5
X148 a_n3827_n3924.t45 minus.t17 a_n2650_13878.t54 gnd.t75 sky130_fd_pr__nfet_01v8 ad=1.155 pd=7.33 as=1.155 ps=7.33 w=7 l=0.7
X149 gnd.t310 commonsourceibias.t92 CSoutput.t115 gnd.t235 sky130_fd_pr__nfet_01v8 ad=1.155 pd=7.33 as=1.155 ps=7.33 w=7 l=1
X150 output.t12 CSoutput.t149 vdd.t156 gnd.t29 sky130_fd_pr__nfet_01v8 ad=0.825 pd=5.33 as=0.825 ps=5.33 w=5 l=1
X151 gnd.t309 commonsourceibias.t93 CSoutput.t114 gnd.t217 sky130_fd_pr__nfet_01v8 ad=1.155 pd=7.33 as=1.155 ps=7.33 w=7 l=1
X152 CSoutput.t29 a_n6972_8799.t62 vdd.t55 vdd.t50 sky130_fd_pr__pfet_01v8 ad=1.32 pd=8.33 as=1.32 ps=8.33 w=8 l=0.5
X153 gnd.t151 gnd.t148 gnd.t150 gnd.t149 sky130_fd_pr__nfet_01v8 ad=2.73 pd=14.78 as=0 ps=0 w=7 l=0.7
X154 vdd.t207 a_n2650_13878.t78 a_n2650_8322.t24 vdd.t206 sky130_fd_pr__pfet_01v8 ad=1.485 pd=9.33 as=3.51 ps=18.78 w=9 l=0.5
X155 a_n2472_13878.t9 a_n2650_13878.t15 a_n2650_13878.t16 vdd.t182 sky130_fd_pr__pfet_01v8 ad=1.485 pd=9.33 as=1.485 ps=9.33 w=9 l=0.5
X156 gnd.t147 gnd.t145 gnd.t146 gnd.t99 sky130_fd_pr__nfet_01v8 ad=2.73 pd=14.78 as=0 ps=0 w=7 l=1
X157 vdd.t54 a_n6972_8799.t63 CSoutput.t28 vdd.t46 sky130_fd_pr__pfet_01v8 ad=1.32 pd=8.33 as=1.32 ps=8.33 w=8 l=0.5
X158 output.t18 outputibias.t9 gnd.t39 gnd.t38 sky130_fd_pr__nfet_01v8 ad=2.34 pd=12.78 as=2.34 ps=12.78 w=6 l=2
X159 vdd.t123 vdd.t121 vdd.t122 vdd.t112 sky130_fd_pr__pfet_01v8 ad=3.12 pd=16.78 as=0 ps=0 w=8 l=0.5
X160 a_n2650_13878.t44 a_n2650_13878.t43 a_n2472_13878.t8 vdd.t159 sky130_fd_pr__pfet_01v8 ad=1.485 pd=9.33 as=1.485 ps=9.33 w=9 l=0.5
X161 gnd.t144 gnd.t141 gnd.t143 gnd.t142 sky130_fd_pr__nfet_01v8 ad=1.95 pd=10.78 as=0 ps=0 w=5 l=1
X162 gnd.t140 gnd.t138 gnd.t139 gnd.t113 sky130_fd_pr__nfet_01v8 ad=2.73 pd=14.78 as=0 ps=0 w=7 l=1
X163 minus.t3 gnd.t135 gnd.t137 gnd.t136 sky130_fd_pr__nfet_01v8 ad=0.165 pd=1.33 as=0.165 ps=1.33 w=1 l=0.5
X164 outputibias.t5 outputibias.t4 gnd.t41 gnd.t40 sky130_fd_pr__nfet_01v8 ad=2.34 pd=12.78 as=2.34 ps=12.78 w=6 l=2
X165 vdd.t192 CSoutput.t150 output.t11 gnd.t67 sky130_fd_pr__nfet_01v8 ad=0.825 pd=5.33 as=0.825 ps=5.33 w=5 l=1
X166 CSoutput.t113 commonsourceibias.t94 gnd.t308 gnd.t207 sky130_fd_pr__nfet_01v8 ad=1.155 pd=7.33 as=1.155 ps=7.33 w=7 l=1
X167 gnd.t307 commonsourceibias.t95 CSoutput.t112 gnd.t240 sky130_fd_pr__nfet_01v8 ad=1.155 pd=7.33 as=1.155 ps=7.33 w=7 l=1
X168 a_n3827_n3924.t29 plus.t16 a_n6972_8799.t21 gnd.t20 sky130_fd_pr__nfet_01v8 ad=1.155 pd=7.33 as=1.155 ps=7.33 w=7 l=0.7
X169 gnd.t306 commonsourceibias.t96 CSoutput.t111 gnd.t201 sky130_fd_pr__nfet_01v8 ad=1.155 pd=7.33 as=1.155 ps=7.33 w=7 l=1
X170 a_n3827_n3924.t39 diffpairibias.t24 gnd.t51 gnd.t50 sky130_fd_pr__nfet_01v8 ad=2.73 pd=14.78 as=2.73 ps=14.78 w=7 l=1
X171 a_n3827_n3924.t42 diffpairibias.t25 gnd.t64 gnd.t63 sky130_fd_pr__nfet_01v8 ad=2.73 pd=14.78 as=2.73 ps=14.78 w=7 l=1
X172 outputibias.t3 outputibias.t2 gnd.t6 gnd.t5 sky130_fd_pr__nfet_01v8 ad=2.34 pd=12.78 as=2.34 ps=12.78 w=6 l=2
X173 a_n6972_8799.t20 plus.t17 a_n3827_n3924.t28 gnd.t44 sky130_fd_pr__nfet_01v8 ad=1.155 pd=7.33 as=1.155 ps=7.33 w=7 l=0.7
X174 gnd.t134 gnd.t132 gnd.t133 gnd.t84 sky130_fd_pr__nfet_01v8 ad=2.73 pd=14.78 as=0 ps=0 w=7 l=1
X175 a_n2472_13878.t7 a_n2650_13878.t37 a_n2650_13878.t38 vdd.t3 sky130_fd_pr__pfet_01v8 ad=1.485 pd=9.33 as=1.485 ps=9.33 w=9 l=0.5
X176 gnd.t131 gnd.t129 gnd.t130 gnd.t84 sky130_fd_pr__nfet_01v8 ad=2.73 pd=14.78 as=0 ps=0 w=7 l=1
X177 a_n2650_8322.t10 a_n2650_13878.t79 a_n6972_8799.t43 vdd.t187 sky130_fd_pr__pfet_01v8 ad=1.485 pd=9.33 as=1.485 ps=9.33 w=9 l=0.5
X178 vdd.t120 vdd.t118 vdd.t119 vdd.t91 sky130_fd_pr__pfet_01v8 ad=3.51 pd=18.78 as=0 ps=0 w=9 l=0.5
X179 CSoutput.t27 a_n6972_8799.t64 vdd.t53 vdd.t52 sky130_fd_pr__pfet_01v8 ad=1.32 pd=8.33 as=3.12 ps=16.78 w=8 l=0.5
X180 vdd.t193 CSoutput.t151 output.t10 gnd.t68 sky130_fd_pr__nfet_01v8 ad=0.825 pd=5.33 as=0.825 ps=5.33 w=5 l=1
X181 CSoutput.t110 commonsourceibias.t97 gnd.t305 gnd.t290 sky130_fd_pr__nfet_01v8 ad=1.155 pd=7.33 as=1.155 ps=7.33 w=7 l=1
X182 output.t9 CSoutput.t152 vdd.t194 gnd.t69 sky130_fd_pr__nfet_01v8 ad=0.825 pd=5.33 as=0.825 ps=5.33 w=5 l=1
X183 gnd.t128 gnd.t126 gnd.t127 gnd.t80 sky130_fd_pr__nfet_01v8 ad=2.73 pd=14.78 as=0 ps=0 w=7 l=1
X184 gnd.t304 commonsourceibias.t98 CSoutput.t109 gnd.t255 sky130_fd_pr__nfet_01v8 ad=1.155 pd=7.33 as=1.155 ps=7.33 w=7 l=1
X185 diffpairibias.t11 diffpairibias.t10 gnd.t73 gnd.t72 sky130_fd_pr__nfet_01v8 ad=2.73 pd=14.78 as=2.73 ps=14.78 w=7 l=1
X186 a_n2472_13878.t25 a_n2650_13878.t80 vdd.t184 vdd.t183 sky130_fd_pr__pfet_01v8 ad=1.485 pd=9.33 as=1.485 ps=9.33 w=9 l=0.5
X187 vdd.t186 a_n2650_13878.t81 a_n2472_13878.t24 vdd.t185 sky130_fd_pr__pfet_01v8 ad=1.485 pd=9.33 as=1.485 ps=9.33 w=9 l=0.5
X188 CSoutput.t26 a_n6972_8799.t65 vdd.t51 vdd.t50 sky130_fd_pr__pfet_01v8 ad=1.32 pd=8.33 as=1.32 ps=8.33 w=8 l=0.5
X189 gnd.t303 commonsourceibias.t99 CSoutput.t108 gnd.t269 sky130_fd_pr__nfet_01v8 ad=1.155 pd=7.33 as=1.155 ps=7.33 w=7 l=1
X190 CSoutput.t107 commonsourceibias.t100 gnd.t199 gnd.t198 sky130_fd_pr__nfet_01v8 ad=1.155 pd=7.33 as=2.73 ps=14.78 w=7 l=1
X191 vdd.t47 a_n6972_8799.t66 CSoutput.t25 vdd.t46 sky130_fd_pr__pfet_01v8 ad=1.32 pd=8.33 as=1.32 ps=8.33 w=8 l=0.5
X192 output.t8 CSoutput.t153 vdd.t190 gnd.t59 sky130_fd_pr__nfet_01v8 ad=0.825 pd=5.33 as=0.825 ps=5.33 w=5 l=1
X193 plus.t1 gnd.t123 gnd.t125 gnd.t124 sky130_fd_pr__nfet_01v8 ad=0.165 pd=1.33 as=0.165 ps=1.33 w=1 l=0.5
X194 a_n2472_13878.t6 a_n2650_13878.t33 a_n2650_13878.t34 vdd.t173 sky130_fd_pr__pfet_01v8 ad=1.485 pd=9.33 as=1.485 ps=9.33 w=9 l=0.5
X195 diffpairibias.t9 diffpairibias.t8 gnd.t373 gnd.t372 sky130_fd_pr__nfet_01v8 ad=2.73 pd=14.78 as=2.73 ps=14.78 w=7 l=1
X196 gnd.t302 commonsourceibias.t101 CSoutput.t106 gnd.t235 sky130_fd_pr__nfet_01v8 ad=1.155 pd=7.33 as=1.155 ps=7.33 w=7 l=1
X197 a_n3827_n3924.t43 minus.t18 a_n2650_13878.t52 gnd.t0 sky130_fd_pr__nfet_01v8 ad=1.155 pd=7.33 as=1.155 ps=7.33 w=7 l=0.7
X198 commonsourceibias.t63 commonsourceibias.t62 gnd.t301 gnd.t290 sky130_fd_pr__nfet_01v8 ad=1.155 pd=7.33 as=1.155 ps=7.33 w=7 l=1
X199 a_n2650_13878.t5 minus.t19 a_n3827_n3924.t7 gnd.t23 sky130_fd_pr__nfet_01v8 ad=1.155 pd=7.33 as=2.73 ps=14.78 w=7 l=0.7
X200 a_n2650_8322.t9 a_n2650_13878.t82 a_n6972_8799.t35 vdd.t176 sky130_fd_pr__pfet_01v8 ad=1.485 pd=9.33 as=1.485 ps=9.33 w=9 l=0.5
X201 CSoutput.t24 a_n6972_8799.t67 vdd.t45 vdd.t24 sky130_fd_pr__pfet_01v8 ad=1.32 pd=8.33 as=1.32 ps=8.33 w=8 l=0.5
X202 outputibias.t1 outputibias.t0 gnd.t66 gnd.t65 sky130_fd_pr__nfet_01v8 ad=2.34 pd=12.78 as=2.34 ps=12.78 w=6 l=2
X203 diffpairibias.t7 diffpairibias.t6 gnd.t363 gnd.t362 sky130_fd_pr__nfet_01v8 ad=2.73 pd=14.78 as=2.73 ps=14.78 w=7 l=1
X204 vdd.t44 a_n6972_8799.t68 CSoutput.t23 vdd.t43 sky130_fd_pr__pfet_01v8 ad=1.32 pd=8.33 as=1.32 ps=8.33 w=8 l=0.5
X205 a_n2650_13878.t1 minus.t20 a_n3827_n3924.t3 gnd.t17 sky130_fd_pr__nfet_01v8 ad=1.155 pd=7.33 as=1.155 ps=7.33 w=7 l=0.7
X206 a_n2472_13878.t5 a_n2650_13878.t31 a_n2650_13878.t32 vdd.t174 sky130_fd_pr__pfet_01v8 ad=1.485 pd=9.33 as=3.51 ps=18.78 w=9 l=0.5
X207 a_n2650_13878.t55 minus.t21 a_n3827_n3924.t46 gnd.t356 sky130_fd_pr__nfet_01v8 ad=1.155 pd=7.33 as=1.155 ps=7.33 w=7 l=0.7
X208 vdd.t178 a_n2650_13878.t83 a_n2650_8322.t23 vdd.t177 sky130_fd_pr__pfet_01v8 ad=1.485 pd=9.33 as=3.51 ps=18.78 w=9 l=0.5
X209 output.t17 outputibias.t10 gnd.t3 gnd.t2 sky130_fd_pr__nfet_01v8 ad=2.34 pd=12.78 as=2.34 ps=12.78 w=6 l=2
X210 a_n3827_n3924.t52 minus.t22 a_n2650_13878.t60 gnd.t4 sky130_fd_pr__nfet_01v8 ad=1.155 pd=7.33 as=1.155 ps=7.33 w=7 l=0.7
X211 CSoutput.t105 commonsourceibias.t102 gnd.t300 gnd.t211 sky130_fd_pr__nfet_01v8 ad=1.155 pd=7.33 as=1.155 ps=7.33 w=7 l=1
X212 CSoutput.t154 a_n2650_8322.t31 sky130_fd_pr__cap_mim_m3_1 l=12 w=12
X213 a_n6972_8799.t19 plus.t18 a_n3827_n3924.t17 gnd.t52 sky130_fd_pr__nfet_01v8 ad=1.155 pd=7.33 as=1.155 ps=7.33 w=7 l=0.7
X214 commonsourceibias.t61 commonsourceibias.t60 gnd.t299 gnd.t262 sky130_fd_pr__nfet_01v8 ad=1.155 pd=7.33 as=1.155 ps=7.33 w=7 l=1
X215 a_n3827_n3924.t9 minus.t23 a_n2650_13878.t47 gnd.t25 sky130_fd_pr__nfet_01v8 ad=1.155 pd=7.33 as=1.155 ps=7.33 w=7 l=0.7
X216 gnd.t122 gnd.t119 gnd.t121 gnd.t120 sky130_fd_pr__nfet_01v8 ad=2.73 pd=14.78 as=0 ps=0 w=7 l=1
X217 a_n2472_13878.t23 a_n2650_13878.t84 vdd.t169 vdd.t168 sky130_fd_pr__pfet_01v8 ad=3.51 pd=18.78 as=1.485 ps=9.33 w=9 l=0.5
X218 vdd.t191 CSoutput.t155 output.t7 gnd.t60 sky130_fd_pr__nfet_01v8 ad=0.825 pd=5.33 as=0.825 ps=5.33 w=5 l=1
X219 CSoutput.t104 commonsourceibias.t103 gnd.t298 gnd.t211 sky130_fd_pr__nfet_01v8 ad=1.155 pd=7.33 as=1.155 ps=7.33 w=7 l=1
X220 gnd.t297 commonsourceibias.t104 CSoutput.t103 gnd.t277 sky130_fd_pr__nfet_01v8 ad=1.155 pd=7.33 as=1.155 ps=7.33 w=7 l=1
X221 vdd.t42 a_n6972_8799.t69 CSoutput.t22 vdd.t33 sky130_fd_pr__pfet_01v8 ad=3.12 pd=16.78 as=1.32 ps=8.33 w=8 l=0.5
X222 CSoutput.t156 a_n2650_8322.t30 sky130_fd_pr__cap_mim_m3_1 l=12 w=12
X223 gnd.t296 commonsourceibias.t58 commonsourceibias.t59 gnd.t222 sky130_fd_pr__nfet_01v8 ad=2.73 pd=14.78 as=1.155 ps=7.33 w=7 l=1
X224 gnd.t118 gnd.t116 minus.t2 gnd.t117 sky130_fd_pr__nfet_01v8 ad=0.165 pd=1.33 as=0.39 ps=2.78 w=1 l=0.5
X225 gnd.t295 commonsourceibias.t105 CSoutput.t102 gnd.t240 sky130_fd_pr__nfet_01v8 ad=1.155 pd=7.33 as=1.155 ps=7.33 w=7 l=1
X226 CSoutput.t101 commonsourceibias.t106 gnd.t294 gnd.t220 sky130_fd_pr__nfet_01v8 ad=1.155 pd=7.33 as=1.155 ps=7.33 w=7 l=1
X227 gnd.t115 gnd.t112 gnd.t114 gnd.t113 sky130_fd_pr__nfet_01v8 ad=2.73 pd=14.78 as=0 ps=0 w=7 l=1
X228 CSoutput.t100 commonsourceibias.t107 gnd.t293 gnd.t275 sky130_fd_pr__nfet_01v8 ad=1.155 pd=7.33 as=1.155 ps=7.33 w=7 l=1
X229 gnd.t292 commonsourceibias.t108 CSoutput.t99 gnd.t217 sky130_fd_pr__nfet_01v8 ad=1.155 pd=7.33 as=1.155 ps=7.33 w=7 l=1
X230 CSoutput.t98 commonsourceibias.t109 gnd.t291 gnd.t290 sky130_fd_pr__nfet_01v8 ad=1.155 pd=7.33 as=1.155 ps=7.33 w=7 l=1
X231 a_n3827_n3924.t0 diffpairibias.t26 gnd.t13 gnd.t12 sky130_fd_pr__nfet_01v8 ad=2.73 pd=14.78 as=2.73 ps=14.78 w=7 l=1
X232 gnd.t289 commonsourceibias.t110 CSoutput.t97 gnd.t215 sky130_fd_pr__nfet_01v8 ad=1.155 pd=7.33 as=1.155 ps=7.33 w=7 l=1
X233 commonsourceibias.t57 commonsourceibias.t56 gnd.t288 gnd.t207 sky130_fd_pr__nfet_01v8 ad=1.155 pd=7.33 as=1.155 ps=7.33 w=7 l=1
X234 vdd.t171 a_n2650_13878.t85 a_n2650_8322.t22 vdd.t170 sky130_fd_pr__pfet_01v8 ad=1.485 pd=9.33 as=1.485 ps=9.33 w=9 l=0.5
X235 a_n2650_8322.t8 a_n2650_13878.t86 a_n6972_8799.t4 vdd.t76 sky130_fd_pr__pfet_01v8 ad=1.485 pd=9.33 as=1.485 ps=9.33 w=9 l=0.5
X236 vdd.t117 vdd.t115 vdd.t116 vdd.t83 sky130_fd_pr__pfet_01v8 ad=3.12 pd=16.78 as=0 ps=0 w=8 l=0.5
X237 CSoutput.t96 commonsourceibias.t111 gnd.t287 gnd.t237 sky130_fd_pr__nfet_01v8 ad=1.155 pd=7.33 as=1.155 ps=7.33 w=7 l=1
X238 gnd.t286 commonsourceibias.t112 CSoutput.t95 gnd.t196 sky130_fd_pr__nfet_01v8 ad=1.155 pd=7.33 as=1.155 ps=7.33 w=7 l=1
X239 vdd.t114 vdd.t111 vdd.t113 vdd.t112 sky130_fd_pr__pfet_01v8 ad=3.12 pd=16.78 as=0 ps=0 w=8 l=0.5
X240 CSoutput.t21 a_n6972_8799.t70 vdd.t41 vdd.t16 sky130_fd_pr__pfet_01v8 ad=1.32 pd=8.33 as=1.32 ps=8.33 w=8 l=0.5
X241 vdd.t110 vdd.t108 vdd.t109 vdd.t87 sky130_fd_pr__pfet_01v8 ad=3.12 pd=16.78 as=0 ps=0 w=8 l=0.5
X242 vdd.t40 a_n6972_8799.t71 CSoutput.t20 vdd.t28 sky130_fd_pr__pfet_01v8 ad=1.32 pd=8.33 as=1.32 ps=8.33 w=8 l=0.5
X243 vdd.t39 a_n6972_8799.t72 CSoutput.t19 vdd.t12 sky130_fd_pr__pfet_01v8 ad=1.32 pd=8.33 as=1.32 ps=8.33 w=8 l=0.5
X244 a_n6972_8799.t18 plus.t19 a_n3827_n3924.t27 gnd.t19 sky130_fd_pr__nfet_01v8 ad=1.155 pd=7.33 as=1.155 ps=7.33 w=7 l=0.7
X245 CSoutput.t94 commonsourceibias.t113 gnd.t281 gnd.t237 sky130_fd_pr__nfet_01v8 ad=1.155 pd=7.33 as=1.155 ps=7.33 w=7 l=1
X246 gnd.t280 commonsourceibias.t114 CSoutput.t93 gnd.t264 sky130_fd_pr__nfet_01v8 ad=1.155 pd=7.33 as=1.155 ps=7.33 w=7 l=1
X247 gnd.t285 commonsourceibias.t115 CSoutput.t92 gnd.t222 sky130_fd_pr__nfet_01v8 ad=2.73 pd=14.78 as=1.155 ps=7.33 w=7 l=1