* NGSPICE file created from opamp.ext - technology: sky130A

.subckt opamp output vdd plus minus commonsourceibias outputibias diffpairibias gnd CSoutput
Cload output gnd 0.0p
X0 CSoutput.t207 commonsourceibias.t80 gnd.t395 gnd.t307 sky130_fd_pr__nfet_01v8 ad=1.155 pd=7.33 as=1.155 ps=7.33 w=7 l=1
X1 a_n1986_8322.t12 a_n2848_n452.t48 vdd.t262 vdd.t261 sky130_fd_pr__pfet_01v8_lvt ad=1.485 pd=9.33 as=1.485 ps=9.33 w=9 l=0.5
X2 a_n1808_13878.t19 a_n2848_n452.t37 a_n2848_n452.t38 vdd.t258 sky130_fd_pr__pfet_01v8_lvt ad=1.485 pd=9.33 as=3.51 ps=18.78 w=9 l=0.5
X3 vdd.t1 a_n7636_8799.t36 CSoutput.t0 vdd.t0 sky130_fd_pr__pfet_01v8_lvt ad=1.32 pd=8.33 as=1.32 ps=8.33 w=8 l=0.5
X4 gnd.t394 commonsourceibias.t81 CSoutput.t206 gnd.t295 sky130_fd_pr__nfet_01v8 ad=1.155 pd=7.33 as=1.155 ps=7.33 w=7 l=1
X5 a_n7636_8799.t13 plus.t5 a_n3106_n452.t45 gnd.t48 sky130_fd_pr__nfet_01v8 ad=1.155 pd=7.33 as=1.155 ps=7.33 w=7 l=0.9
X6 CSoutput.t205 commonsourceibias.t82 gnd.t393 gnd.t264 sky130_fd_pr__nfet_01v8 ad=1.155 pd=7.33 as=1.155 ps=7.33 w=7 l=1
X7 CSoutput.t204 commonsourceibias.t83 gnd.t392 gnd.t200 sky130_fd_pr__nfet_01v8 ad=1.155 pd=7.33 as=1.155 ps=7.33 w=7 l=1
X8 a_n3106_n452.t44 plus.t6 a_n7636_8799.t5 gnd.t32 sky130_fd_pr__nfet_01v8 ad=1.155 pd=7.33 as=1.155 ps=7.33 w=7 l=0.9
X9 gnd.t391 commonsourceibias.t84 CSoutput.t203 gnd.t311 sky130_fd_pr__nfet_01v8 ad=1.155 pd=7.33 as=1.155 ps=7.33 w=7 l=1
X10 a_n2848_n452.t16 a_n2848_n452.t15 a_n1808_13878.t18 vdd.t240 sky130_fd_pr__pfet_01v8_lvt ad=1.485 pd=9.33 as=1.485 ps=9.33 w=9 l=0.5
X11 vdd.t144 vdd.t142 vdd.t143 vdd.t120 sky130_fd_pr__pfet_01v8_lvt ad=3.51 pd=18.78 as=0 ps=0 w=9 l=0.5
X12 CSoutput.t240 a_n1986_8322.t0 sky130_fd_pr__cap_mim_m3_1 l=12 w=12
X13 CSoutput.t1 a_n7636_8799.t37 vdd.t3 vdd.t2 sky130_fd_pr__pfet_01v8_lvt ad=1.32 pd=8.33 as=1.32 ps=8.33 w=8 l=0.5
X14 a_n1808_13878.t17 a_n2848_n452.t27 a_n2848_n452.t28 vdd.t248 sky130_fd_pr__pfet_01v8_lvt ad=1.485 pd=9.33 as=1.485 ps=9.33 w=9 l=0.5
X15 a_n1808_13878.t7 a_n2848_n452.t49 vdd.t260 vdd.t259 sky130_fd_pr__pfet_01v8_lvt ad=1.485 pd=9.33 as=1.485 ps=9.33 w=9 l=0.5
X16 vdd.t201 a_n7636_8799.t38 CSoutput.t70 vdd.t200 sky130_fd_pr__pfet_01v8_lvt ad=1.32 pd=8.33 as=1.32 ps=8.33 w=8 l=0.5
X17 CSoutput.t71 a_n7636_8799.t39 vdd.t202 vdd.t183 sky130_fd_pr__pfet_01v8_lvt ad=1.32 pd=8.33 as=1.32 ps=8.33 w=8 l=0.5
X18 CSoutput.t202 commonsourceibias.t85 gnd.t390 gnd.t244 sky130_fd_pr__nfet_01v8 ad=1.155 pd=7.33 as=1.155 ps=7.33 w=7 l=1
X19 CSoutput.t46 a_n7636_8799.t40 vdd.t168 vdd.t6 sky130_fd_pr__pfet_01v8_lvt ad=1.32 pd=8.33 as=1.32 ps=8.33 w=8 l=0.5
X20 gnd.t389 commonsourceibias.t86 CSoutput.t201 gnd.t211 sky130_fd_pr__nfet_01v8 ad=1.155 pd=7.33 as=1.155 ps=7.33 w=7 l=1
X21 CSoutput.t200 commonsourceibias.t87 gnd.t388 gnd.t293 sky130_fd_pr__nfet_01v8 ad=1.155 pd=7.33 as=1.155 ps=7.33 w=7 l=1
X22 gnd.t387 commonsourceibias.t88 CSoutput.t199 gnd.t241 sky130_fd_pr__nfet_01v8 ad=2.73 pd=14.78 as=1.155 ps=7.33 w=7 l=1
X23 CSoutput.t198 commonsourceibias.t89 gnd.t386 gnd.t293 sky130_fd_pr__nfet_01v8 ad=1.155 pd=7.33 as=1.155 ps=7.33 w=7 l=1
X24 CSoutput.t197 commonsourceibias.t90 gnd.t385 gnd.t313 sky130_fd_pr__nfet_01v8 ad=1.155 pd=7.33 as=1.155 ps=7.33 w=7 l=1
X25 gnd.t384 commonsourceibias.t91 CSoutput.t196 gnd.t272 sky130_fd_pr__nfet_01v8 ad=1.155 pd=7.33 as=1.155 ps=7.33 w=7 l=1
X26 gnd.t171 gnd.t168 gnd.t170 gnd.t169 sky130_fd_pr__nfet_01v8 ad=2.34 pd=12.78 as=0 ps=0 w=6 l=2
X27 gnd.t167 gnd.t165 gnd.t166 gnd.t84 sky130_fd_pr__nfet_01v8 ad=2.73 pd=14.78 as=0 ps=0 w=7 l=1
X28 commonsourceibias.t13 commonsourceibias.t12 gnd.t383 gnd.t244 sky130_fd_pr__nfet_01v8 ad=1.155 pd=7.33 as=1.155 ps=7.33 w=7 l=1
X29 vdd.t141 vdd.t139 vdd.t140 vdd.t92 sky130_fd_pr__pfet_01v8_lvt ad=3.12 pd=16.78 as=0 ps=0 w=8 l=0.5
X30 vdd.t52 CSoutput.t241 output.t15 gnd.t49 sky130_fd_pr__nfet_01v8_lvt ad=0.825 pd=5.33 as=0.825 ps=5.33 w=5 l=1
X31 a_n2848_n452.t12 minus.t5 a_n3106_n452.t18 gnd.t47 sky130_fd_pr__nfet_01v8 ad=1.155 pd=7.33 as=1.155 ps=7.33 w=7 l=0.9
X32 CSoutput.t195 commonsourceibias.t92 gnd.t382 gnd.t200 sky130_fd_pr__nfet_01v8 ad=1.155 pd=7.33 as=1.155 ps=7.33 w=7 l=1
X33 a_n1986_8322.t17 a_n2848_n452.t50 a_n7636_8799.t30 vdd.t257 sky130_fd_pr__pfet_01v8_lvt ad=1.485 pd=9.33 as=1.485 ps=9.33 w=9 l=0.5
X34 gnd.t164 gnd.t162 gnd.t163 gnd.t77 sky130_fd_pr__nfet_01v8 ad=2.73 pd=14.78 as=0 ps=0 w=7 l=1
X35 a_n7636_8799.t4 plus.t7 a_n3106_n452.t43 gnd.t28 sky130_fd_pr__nfet_01v8 ad=1.155 pd=7.33 as=1.155 ps=7.33 w=7 l=0.9
X36 a_n2848_n452.t45 minus.t6 a_n3106_n452.t52 gnd.t403 sky130_fd_pr__nfet_01v8 ad=1.155 pd=7.33 as=1.155 ps=7.33 w=7 l=0.9
X37 plus.t4 gnd.t159 gnd.t161 gnd.t160 sky130_fd_pr__nfet_01v8 ad=0.165 pd=1.33 as=0.165 ps=1.33 w=1 l=0.5
X38 CSoutput.t47 a_n7636_8799.t41 vdd.t169 vdd.t32 sky130_fd_pr__pfet_01v8_lvt ad=1.32 pd=8.33 as=1.32 ps=8.33 w=8 l=0.5
X39 vdd.t265 a_n7636_8799.t42 CSoutput.t210 vdd.t176 sky130_fd_pr__pfet_01v8_lvt ad=1.32 pd=8.33 as=1.32 ps=8.33 w=8 l=0.5
X40 CSoutput.t194 commonsourceibias.t93 gnd.t381 gnd.t307 sky130_fd_pr__nfet_01v8 ad=1.155 pd=7.33 as=1.155 ps=7.33 w=7 l=1
X41 gnd.t380 commonsourceibias.t94 CSoutput.t193 gnd.t281 sky130_fd_pr__nfet_01v8 ad=1.155 pd=7.33 as=1.155 ps=7.33 w=7 l=1
X42 gnd.t158 gnd.t156 gnd.t157 gnd.t96 sky130_fd_pr__nfet_01v8 ad=2.73 pd=14.78 as=0 ps=0 w=7 l=1
X43 CSoutput.t192 commonsourceibias.t95 gnd.t379 gnd.t253 sky130_fd_pr__nfet_01v8 ad=1.155 pd=7.33 as=1.155 ps=7.33 w=7 l=1
X44 CSoutput.t191 commonsourceibias.t96 gnd.t378 gnd.t261 sky130_fd_pr__nfet_01v8 ad=1.155 pd=7.33 as=1.155 ps=7.33 w=7 l=1
X45 vdd.t266 a_n7636_8799.t43 CSoutput.t211 vdd.t20 sky130_fd_pr__pfet_01v8_lvt ad=1.32 pd=8.33 as=1.32 ps=8.33 w=8 l=0.5
X46 CSoutput.t190 commonsourceibias.t97 gnd.t377 gnd.t274 sky130_fd_pr__nfet_01v8 ad=1.155 pd=7.33 as=1.155 ps=7.33 w=7 l=1
X47 vdd.t263 a_n7636_8799.t44 CSoutput.t208 vdd.t18 sky130_fd_pr__pfet_01v8_lvt ad=1.32 pd=8.33 as=1.32 ps=8.33 w=8 l=0.5
X48 CSoutput.t209 a_n7636_8799.t45 vdd.t264 vdd.t173 sky130_fd_pr__pfet_01v8_lvt ad=1.32 pd=8.33 as=1.32 ps=8.33 w=8 l=0.5
X49 a_n3106_n452.t42 plus.t8 a_n7636_8799.t35 gnd.t8 sky130_fd_pr__nfet_01v8 ad=1.155 pd=7.33 as=1.155 ps=7.33 w=7 l=0.9
X50 a_n7636_8799.t29 a_n2848_n452.t51 a_n1986_8322.t14 vdd.t258 sky130_fd_pr__pfet_01v8_lvt ad=1.485 pd=9.33 as=3.51 ps=18.78 w=9 l=0.5
X51 vdd.t66 a_n7636_8799.t46 CSoutput.t26 vdd.t65 sky130_fd_pr__pfet_01v8_lvt ad=1.32 pd=8.33 as=1.32 ps=8.33 w=8 l=0.5
X52 a_n3106_n452.t8 diffpairibias.t16 gnd.t23 gnd.t22 sky130_fd_pr__nfet_01v8 ad=2.73 pd=14.78 as=2.73 ps=14.78 w=7 l=1
X53 gnd.t376 commonsourceibias.t98 CSoutput.t189 gnd.t213 sky130_fd_pr__nfet_01v8 ad=2.73 pd=14.78 as=1.155 ps=7.33 w=7 l=1
X54 CSoutput.t27 a_n7636_8799.t47 vdd.t68 vdd.t67 sky130_fd_pr__pfet_01v8_lvt ad=1.32 pd=8.33 as=3.12 ps=16.78 w=8 l=0.5
X55 a_n3106_n452.t14 minus.t7 a_n2848_n452.t9 gnd.t43 sky130_fd_pr__nfet_01v8 ad=1.155 pd=7.33 as=1.155 ps=7.33 w=7 l=0.9
X56 gnd.t375 commonsourceibias.t99 CSoutput.t188 gnd.t249 sky130_fd_pr__nfet_01v8 ad=1.155 pd=7.33 as=1.155 ps=7.33 w=7 l=1
X57 CSoutput.t187 commonsourceibias.t100 gnd.t374 gnd.t302 sky130_fd_pr__nfet_01v8 ad=1.155 pd=7.33 as=1.155 ps=7.33 w=7 l=1
X58 CSoutput.t186 commonsourceibias.t101 gnd.t373 gnd.t223 sky130_fd_pr__nfet_01v8 ad=1.155 pd=7.33 as=2.73 ps=14.78 w=7 l=1
X59 gnd.t372 commonsourceibias.t10 commonsourceibias.t11 gnd.t246 sky130_fd_pr__nfet_01v8 ad=1.155 pd=7.33 as=1.155 ps=7.33 w=7 l=1
X60 CSoutput.t185 commonsourceibias.t102 gnd.t371 gnd.t274 sky130_fd_pr__nfet_01v8 ad=1.155 pd=7.33 as=1.155 ps=7.33 w=7 l=1
X61 gnd.t370 commonsourceibias.t103 CSoutput.t184 gnd.t298 sky130_fd_pr__nfet_01v8 ad=1.155 pd=7.33 as=1.155 ps=7.33 w=7 l=1
X62 vdd.t138 vdd.t136 vdd.t137 vdd.t70 sky130_fd_pr__pfet_01v8_lvt ad=3.12 pd=16.78 as=0 ps=0 w=8 l=0.5
X63 CSoutput.t68 a_n7636_8799.t48 vdd.t198 vdd.t2 sky130_fd_pr__pfet_01v8_lvt ad=1.32 pd=8.33 as=1.32 ps=8.33 w=8 l=0.5
X64 CSoutput.t69 a_n7636_8799.t49 vdd.t199 vdd.t147 sky130_fd_pr__pfet_01v8_lvt ad=1.32 pd=8.33 as=1.32 ps=8.33 w=8 l=0.5
X65 CSoutput.t183 commonsourceibias.t104 gnd.t369 gnd.t232 sky130_fd_pr__nfet_01v8 ad=1.155 pd=7.33 as=1.155 ps=7.33 w=7 l=1
X66 CSoutput.t182 commonsourceibias.t105 gnd.t368 gnd.t258 sky130_fd_pr__nfet_01v8 ad=1.155 pd=7.33 as=1.155 ps=7.33 w=7 l=1
X67 gnd.t367 commonsourceibias.t106 CSoutput.t181 gnd.t298 sky130_fd_pr__nfet_01v8 ad=1.155 pd=7.33 as=1.155 ps=7.33 w=7 l=1
X68 CSoutput.t180 commonsourceibias.t107 gnd.t366 gnd.t215 sky130_fd_pr__nfet_01v8 ad=1.155 pd=7.33 as=1.155 ps=7.33 w=7 l=1
X69 gnd.t155 gnd.t153 gnd.t154 gnd.t92 sky130_fd_pr__nfet_01v8 ad=2.73 pd=14.78 as=0 ps=0 w=7 l=0.9
X70 gnd.t365 commonsourceibias.t108 CSoutput.t179 gnd.t295 sky130_fd_pr__nfet_01v8 ad=1.155 pd=7.33 as=1.155 ps=7.33 w=7 l=1
X71 vdd.t47 CSoutput.t242 output.t14 gnd.t50 sky130_fd_pr__nfet_01v8_lvt ad=0.825 pd=5.33 as=0.825 ps=5.33 w=5 l=1
X72 CSoutput.t243 a_n1986_8322.t0 sky130_fd_pr__cap_mim_m3_1 l=12 w=12
X73 output.t13 CSoutput.t244 vdd.t46 gnd.t51 sky130_fd_pr__nfet_01v8_lvt ad=0.825 pd=5.33 as=0.825 ps=5.33 w=5 l=1
X74 CSoutput.t86 a_n7636_8799.t50 vdd.t217 vdd.t6 sky130_fd_pr__pfet_01v8_lvt ad=1.32 pd=8.33 as=1.32 ps=8.33 w=8 l=0.5
X75 gnd.t364 commonsourceibias.t16 commonsourceibias.t17 gnd.t198 sky130_fd_pr__nfet_01v8 ad=1.155 pd=7.33 as=1.155 ps=7.33 w=7 l=1
X76 CSoutput.t178 commonsourceibias.t109 gnd.t363 gnd.t293 sky130_fd_pr__nfet_01v8 ad=1.155 pd=7.33 as=1.155 ps=7.33 w=7 l=1
X77 a_n3106_n452.t41 plus.t9 a_n7636_8799.t34 gnd.t12 sky130_fd_pr__nfet_01v8 ad=1.155 pd=7.33 as=1.155 ps=7.33 w=7 l=0.9
X78 gnd.t152 gnd.t150 gnd.t151 gnd.t96 sky130_fd_pr__nfet_01v8 ad=2.73 pd=14.78 as=0 ps=0 w=7 l=1
X79 CSoutput.t177 commonsourceibias.t110 gnd.t356 gnd.t258 sky130_fd_pr__nfet_01v8 ad=1.155 pd=7.33 as=1.155 ps=7.33 w=7 l=1
X80 diffpairibias.t15 diffpairibias.t14 gnd.t183 gnd.t182 sky130_fd_pr__nfet_01v8 ad=2.73 pd=14.78 as=2.73 ps=14.78 w=7 l=1
X81 a_n3106_n452.t40 plus.t10 a_n7636_8799.t0 gnd.t4 sky130_fd_pr__nfet_01v8 ad=1.155 pd=7.33 as=1.155 ps=7.33 w=7 l=0.9
X82 a_n1808_13878.t16 a_n2848_n452.t17 a_n2848_n452.t18 vdd.t222 sky130_fd_pr__pfet_01v8_lvt ad=1.485 pd=9.33 as=3.51 ps=18.78 w=9 l=0.5
X83 vdd.t135 vdd.t133 vdd.t134 vdd.t92 sky130_fd_pr__pfet_01v8_lvt ad=3.12 pd=16.78 as=0 ps=0 w=8 l=0.5
X84 gnd.t362 commonsourceibias.t111 CSoutput.t176 gnd.t196 sky130_fd_pr__nfet_01v8 ad=1.155 pd=7.33 as=1.155 ps=7.33 w=7 l=1
X85 vdd.t218 a_n7636_8799.t51 CSoutput.t87 vdd.t65 sky130_fd_pr__pfet_01v8_lvt ad=1.32 pd=8.33 as=1.32 ps=8.33 w=8 l=0.5
X86 a_n3106_n452.t15 minus.t8 a_n2848_n452.t10 gnd.t36 sky130_fd_pr__nfet_01v8 ad=2.73 pd=14.78 as=1.155 ps=7.33 w=7 l=0.9
X87 CSoutput.t16 a_n7636_8799.t52 vdd.t31 vdd.t27 sky130_fd_pr__pfet_01v8_lvt ad=1.32 pd=8.33 as=1.32 ps=8.33 w=8 l=0.5
X88 a_n2848_n452.t26 a_n2848_n452.t25 a_n1808_13878.t15 vdd.t232 sky130_fd_pr__pfet_01v8_lvt ad=1.485 pd=9.33 as=1.485 ps=9.33 w=9 l=0.5
X89 CSoutput.t175 commonsourceibias.t112 gnd.t361 gnd.t223 sky130_fd_pr__nfet_01v8 ad=1.155 pd=7.33 as=2.73 ps=14.78 w=7 l=1
X90 gnd.t149 gnd.t146 gnd.t148 gnd.t147 sky130_fd_pr__nfet_01v8_lvt ad=1.95 pd=10.78 as=0 ps=0 w=5 l=1
X91 CSoutput.t174 commonsourceibias.t113 gnd.t360 gnd.t270 sky130_fd_pr__nfet_01v8 ad=1.155 pd=7.33 as=1.155 ps=7.33 w=7 l=1
X92 gnd.t359 commonsourceibias.t114 CSoutput.t173 gnd.t217 sky130_fd_pr__nfet_01v8 ad=1.155 pd=7.33 as=1.155 ps=7.33 w=7 l=1
X93 gnd.t355 commonsourceibias.t115 CSoutput.t172 gnd.t256 sky130_fd_pr__nfet_01v8 ad=1.155 pd=7.33 as=1.155 ps=7.33 w=7 l=1
X94 CSoutput.t17 a_n7636_8799.t53 vdd.t33 vdd.t32 sky130_fd_pr__pfet_01v8_lvt ad=1.32 pd=8.33 as=1.32 ps=8.33 w=8 l=0.5
X95 vdd.t132 vdd.t130 vdd.t131 vdd.t105 sky130_fd_pr__pfet_01v8_lvt ad=3.51 pd=18.78 as=0 ps=0 w=9 l=0.5
X96 gnd.t358 commonsourceibias.t116 CSoutput.t171 gnd.t209 sky130_fd_pr__nfet_01v8 ad=1.155 pd=7.33 as=1.155 ps=7.33 w=7 l=1
X97 vdd.t284 a_n7636_8799.t54 CSoutput.t228 vdd.t176 sky130_fd_pr__pfet_01v8_lvt ad=1.32 pd=8.33 as=1.32 ps=8.33 w=8 l=0.5
X98 CSoutput.t170 commonsourceibias.t117 gnd.t357 gnd.t270 sky130_fd_pr__nfet_01v8 ad=1.155 pd=7.33 as=1.155 ps=7.33 w=7 l=1
X99 diffpairibias.t13 diffpairibias.t12 gnd.t194 gnd.t193 sky130_fd_pr__nfet_01v8 ad=2.73 pd=14.78 as=2.73 ps=14.78 w=7 l=1
X100 gnd.t354 commonsourceibias.t14 commonsourceibias.t15 gnd.t239 sky130_fd_pr__nfet_01v8 ad=1.155 pd=7.33 as=1.155 ps=7.33 w=7 l=1
X101 gnd.t353 commonsourceibias.t118 CSoutput.t169 gnd.t272 sky130_fd_pr__nfet_01v8 ad=1.155 pd=7.33 as=1.155 ps=7.33 w=7 l=1
X102 CSoutput.t168 commonsourceibias.t119 gnd.t352 gnd.t215 sky130_fd_pr__nfet_01v8 ad=1.155 pd=7.33 as=1.155 ps=7.33 w=7 l=1
X103 gnd.t351 commonsourceibias.t120 CSoutput.t167 gnd.t239 sky130_fd_pr__nfet_01v8 ad=1.155 pd=7.33 as=1.155 ps=7.33 w=7 l=1
X104 CSoutput.t166 commonsourceibias.t121 gnd.t350 gnd.t313 sky130_fd_pr__nfet_01v8 ad=1.155 pd=7.33 as=1.155 ps=7.33 w=7 l=1
X105 CSoutput.t165 commonsourceibias.t122 gnd.t349 gnd.t236 sky130_fd_pr__nfet_01v8 ad=1.155 pd=7.33 as=1.155 ps=7.33 w=7 l=1
X106 CSoutput.t229 a_n7636_8799.t55 vdd.t285 vdd.t277 sky130_fd_pr__pfet_01v8_lvt ad=1.32 pd=8.33 as=1.32 ps=8.33 w=8 l=0.5
X107 vdd.t162 a_n7636_8799.t56 CSoutput.t40 vdd.t18 sky130_fd_pr__pfet_01v8_lvt ad=1.32 pd=8.33 as=1.32 ps=8.33 w=8 l=0.5
X108 vdd.t163 a_n7636_8799.t57 CSoutput.t41 vdd.t41 sky130_fd_pr__pfet_01v8_lvt ad=1.32 pd=8.33 as=1.32 ps=8.33 w=8 l=0.5
X109 CSoutput.t164 commonsourceibias.t123 gnd.t348 gnd.t225 sky130_fd_pr__nfet_01v8 ad=1.155 pd=7.33 as=1.155 ps=7.33 w=7 l=1
X110 gnd.t347 commonsourceibias.t124 CSoutput.t163 gnd.t281 sky130_fd_pr__nfet_01v8 ad=1.155 pd=7.33 as=1.155 ps=7.33 w=7 l=1
X111 vdd.t269 a_n7636_8799.t58 CSoutput.t214 vdd.t65 sky130_fd_pr__pfet_01v8_lvt ad=1.32 pd=8.33 as=1.32 ps=8.33 w=8 l=0.5
X112 vdd.t270 a_n7636_8799.t59 CSoutput.t215 vdd.t170 sky130_fd_pr__pfet_01v8_lvt ad=1.32 pd=8.33 as=1.32 ps=8.33 w=8 l=0.5
X113 CSoutput.t80 a_n7636_8799.t60 vdd.t211 vdd.t67 sky130_fd_pr__pfet_01v8_lvt ad=1.32 pd=8.33 as=3.12 ps=16.78 w=8 l=0.5
X114 CSoutput.t81 a_n7636_8799.t61 vdd.t212 vdd.t157 sky130_fd_pr__pfet_01v8_lvt ad=1.32 pd=8.33 as=1.32 ps=8.33 w=8 l=0.5
X115 a_n3106_n452.t17 minus.t9 a_n2848_n452.t11 gnd.t11 sky130_fd_pr__nfet_01v8 ad=1.155 pd=7.33 as=1.155 ps=7.33 w=7 l=0.9
X116 gnd.t346 commonsourceibias.t8 commonsourceibias.t9 gnd.t229 sky130_fd_pr__nfet_01v8 ad=1.155 pd=7.33 as=1.155 ps=7.33 w=7 l=1
X117 a_n3106_n452.t39 plus.t11 a_n7636_8799.t9 gnd.t37 sky130_fd_pr__nfet_01v8 ad=2.73 pd=14.78 as=1.155 ps=7.33 w=7 l=0.9
X118 gnd.t345 commonsourceibias.t6 commonsourceibias.t7 gnd.t213 sky130_fd_pr__nfet_01v8 ad=2.73 pd=14.78 as=1.155 ps=7.33 w=7 l=1
X119 CSoutput.t162 commonsourceibias.t125 gnd.t344 gnd.t302 sky130_fd_pr__nfet_01v8 ad=1.155 pd=7.33 as=1.155 ps=7.33 w=7 l=1
X120 a_n7636_8799.t10 plus.t12 a_n3106_n452.t38 gnd.t44 sky130_fd_pr__nfet_01v8 ad=1.155 pd=7.33 as=1.155 ps=7.33 w=7 l=0.9
X121 CSoutput.t161 commonsourceibias.t126 gnd.t341 gnd.t232 sky130_fd_pr__nfet_01v8 ad=1.155 pd=7.33 as=1.155 ps=7.33 w=7 l=1
X122 vdd.t155 a_n7636_8799.t62 CSoutput.t34 vdd.t154 sky130_fd_pr__pfet_01v8_lvt ad=1.32 pd=8.33 as=1.32 ps=8.33 w=8 l=0.5
X123 gnd.t343 commonsourceibias.t127 CSoutput.t160 gnd.t239 sky130_fd_pr__nfet_01v8 ad=1.155 pd=7.33 as=1.155 ps=7.33 w=7 l=1
X124 CSoutput.t35 a_n7636_8799.t63 vdd.t156 vdd.t149 sky130_fd_pr__pfet_01v8_lvt ad=1.32 pd=8.33 as=1.32 ps=8.33 w=8 l=0.5
X125 output.t12 CSoutput.t245 vdd.t45 gnd.t188 sky130_fd_pr__nfet_01v8_lvt ad=0.825 pd=5.33 as=0.825 ps=5.33 w=5 l=1
X126 a_n3106_n452.t11 diffpairibias.t17 gnd.t35 gnd.t34 sky130_fd_pr__nfet_01v8 ad=2.73 pd=14.78 as=2.73 ps=14.78 w=7 l=1
X127 CSoutput.t238 a_n7636_8799.t64 vdd.t294 vdd.t147 sky130_fd_pr__pfet_01v8_lvt ad=1.32 pd=8.33 as=1.32 ps=8.33 w=8 l=0.5
X128 CSoutput.t239 a_n7636_8799.t65 vdd.t295 vdd.t180 sky130_fd_pr__pfet_01v8_lvt ad=1.32 pd=8.33 as=3.12 ps=16.78 w=8 l=0.5
X129 CSoutput.t246 a_n1986_8322.t0 sky130_fd_pr__cap_mim_m3_1 l=12 w=12
X130 vdd.t55 CSoutput.t247 output.t11 gnd.t189 sky130_fd_pr__nfet_01v8_lvt ad=0.825 pd=5.33 as=0.825 ps=5.33 w=5 l=1
X131 CSoutput.t30 a_n7636_8799.t66 vdd.t150 vdd.t149 sky130_fd_pr__pfet_01v8_lvt ad=1.32 pd=8.33 as=1.32 ps=8.33 w=8 l=0.5
X132 gnd.t145 gnd.t143 gnd.t144 gnd.t73 sky130_fd_pr__nfet_01v8 ad=2.73 pd=14.78 as=0 ps=0 w=7 l=1
X133 a_n3106_n452.t37 plus.t13 a_n7636_8799.t6 gnd.t33 sky130_fd_pr__nfet_01v8 ad=1.155 pd=7.33 as=1.155 ps=7.33 w=7 l=0.9
X134 gnd.t342 commonsourceibias.t128 CSoutput.t159 gnd.t249 sky130_fd_pr__nfet_01v8 ad=1.155 pd=7.33 as=1.155 ps=7.33 w=7 l=1
X135 vdd.t151 a_n7636_8799.t67 CSoutput.t31 vdd.t22 sky130_fd_pr__pfet_01v8_lvt ad=1.32 pd=8.33 as=1.32 ps=8.33 w=8 l=0.5
X136 gnd.t142 gnd.t140 gnd.t141 gnd.t73 sky130_fd_pr__nfet_01v8 ad=2.73 pd=14.78 as=0 ps=0 w=7 l=1
X137 gnd.t340 commonsourceibias.t129 CSoutput.t158 gnd.t196 sky130_fd_pr__nfet_01v8 ad=1.155 pd=7.33 as=1.155 ps=7.33 w=7 l=1
X138 CSoutput.t157 commonsourceibias.t130 gnd.t339 gnd.t261 sky130_fd_pr__nfet_01v8 ad=1.155 pd=7.33 as=1.155 ps=7.33 w=7 l=1
X139 vdd.t50 CSoutput.t248 output.t10 gnd.t190 sky130_fd_pr__nfet_01v8_lvt ad=0.825 pd=5.33 as=0.825 ps=5.33 w=5 l=1
X140 vdd.t25 a_n7636_8799.t68 CSoutput.t12 vdd.t24 sky130_fd_pr__pfet_01v8_lvt ad=1.32 pd=8.33 as=1.32 ps=8.33 w=8 l=0.5
X141 commonsourceibias.t5 commonsourceibias.t4 gnd.t338 gnd.t232 sky130_fd_pr__nfet_01v8 ad=1.155 pd=7.33 as=1.155 ps=7.33 w=7 l=1
X142 a_n2848_n452.t20 a_n2848_n452.t19 a_n1808_13878.t14 vdd.t257 sky130_fd_pr__pfet_01v8_lvt ad=1.485 pd=9.33 as=1.485 ps=9.33 w=9 l=0.5
X143 vdd.t26 a_n7636_8799.t69 CSoutput.t13 vdd.t14 sky130_fd_pr__pfet_01v8_lvt ad=1.32 pd=8.33 as=1.32 ps=8.33 w=8 l=0.5
X144 vdd.t21 a_n7636_8799.t70 CSoutput.t10 vdd.t20 sky130_fd_pr__pfet_01v8_lvt ad=1.32 pd=8.33 as=1.32 ps=8.33 w=8 l=0.5
X145 a_n7636_8799.t28 a_n2848_n452.t52 a_n1986_8322.t13 vdd.t247 sky130_fd_pr__pfet_01v8_lvt ad=1.485 pd=9.33 as=1.485 ps=9.33 w=9 l=0.5
X146 a_n2848_n452.t22 a_n2848_n452.t21 a_n1808_13878.t13 vdd.t219 sky130_fd_pr__pfet_01v8_lvt ad=3.51 pd=18.78 as=1.485 ps=9.33 w=9 l=0.5
X147 gnd.t337 commonsourceibias.t131 CSoutput.t156 gnd.t207 sky130_fd_pr__nfet_01v8 ad=1.155 pd=7.33 as=1.155 ps=7.33 w=7 l=1
X148 a_n2848_n452.t41 minus.t10 a_n3106_n452.t48 gnd.t177 sky130_fd_pr__nfet_01v8 ad=1.155 pd=7.33 as=2.73 ps=14.78 w=7 l=0.9
X149 vdd.t23 a_n7636_8799.t71 CSoutput.t11 vdd.t22 sky130_fd_pr__pfet_01v8_lvt ad=1.32 pd=8.33 as=1.32 ps=8.33 w=8 l=0.5
X150 gnd.t336 commonsourceibias.t132 CSoutput.t155 gnd.t221 sky130_fd_pr__nfet_01v8 ad=1.155 pd=7.33 as=1.155 ps=7.33 w=7 l=1
X151 gnd.t335 commonsourceibias.t2 commonsourceibias.t3 gnd.t211 sky130_fd_pr__nfet_01v8 ad=1.155 pd=7.33 as=1.155 ps=7.33 w=7 l=1
X152 gnd.t334 commonsourceibias.t133 CSoutput.t154 gnd.t246 sky130_fd_pr__nfet_01v8 ad=1.155 pd=7.33 as=1.155 ps=7.33 w=7 l=1
X153 vdd.t38 a_n7636_8799.t72 CSoutput.t20 vdd.t37 sky130_fd_pr__pfet_01v8_lvt ad=1.32 pd=8.33 as=1.32 ps=8.33 w=8 l=0.5
X154 CSoutput.t21 a_n7636_8799.t73 vdd.t40 vdd.t39 sky130_fd_pr__pfet_01v8_lvt ad=1.32 pd=8.33 as=1.32 ps=8.33 w=8 l=0.5
X155 output.t9 CSoutput.t249 vdd.t59 gnd.t178 sky130_fd_pr__nfet_01v8_lvt ad=0.825 pd=5.33 as=0.825 ps=5.33 w=5 l=1
X156 gnd.t139 gnd.t137 gnd.t138 gnd.t77 sky130_fd_pr__nfet_01v8 ad=2.73 pd=14.78 as=0 ps=0 w=7 l=1
X157 vdd.t171 a_n7636_8799.t74 CSoutput.t48 vdd.t170 sky130_fd_pr__pfet_01v8_lvt ad=1.32 pd=8.33 as=1.32 ps=8.33 w=8 l=0.5
X158 CSoutput.t153 commonsourceibias.t134 gnd.t333 gnd.t234 sky130_fd_pr__nfet_01v8 ad=1.155 pd=7.33 as=2.73 ps=14.78 w=7 l=1
X159 vdd.t129 vdd.t127 vdd.t128 vdd.t113 sky130_fd_pr__pfet_01v8_lvt ad=3.51 pd=18.78 as=0 ps=0 w=9 l=0.5
X160 gnd.t332 commonsourceibias.t135 CSoutput.t152 gnd.t272 sky130_fd_pr__nfet_01v8 ad=1.155 pd=7.33 as=1.155 ps=7.33 w=7 l=1
X161 a_n3106_n452.t3 diffpairibias.t18 gnd.t10 gnd.t9 sky130_fd_pr__nfet_01v8 ad=2.73 pd=14.78 as=2.73 ps=14.78 w=7 l=1
X162 CSoutput.t49 a_n7636_8799.t75 vdd.t172 vdd.t157 sky130_fd_pr__pfet_01v8_lvt ad=1.32 pd=8.33 as=1.32 ps=8.33 w=8 l=0.5
X163 gnd.t331 commonsourceibias.t136 CSoutput.t151 gnd.t298 sky130_fd_pr__nfet_01v8 ad=1.155 pd=7.33 as=1.155 ps=7.33 w=7 l=1
X164 vdd.t126 vdd.t123 vdd.t125 vdd.t124 sky130_fd_pr__pfet_01v8_lvt ad=3.51 pd=18.78 as=0 ps=0 w=9 l=0.5
X165 gnd.t330 commonsourceibias.t0 commonsourceibias.t1 gnd.t217 sky130_fd_pr__nfet_01v8 ad=1.155 pd=7.33 as=1.155 ps=7.33 w=7 l=1
X166 CSoutput.t150 commonsourceibias.t137 gnd.t329 gnd.t313 sky130_fd_pr__nfet_01v8 ad=1.155 pd=7.33 as=1.155 ps=7.33 w=7 l=1
X167 gnd.t328 commonsourceibias.t138 CSoutput.t149 gnd.t229 sky130_fd_pr__nfet_01v8 ad=1.155 pd=7.33 as=1.155 ps=7.33 w=7 l=1
X168 CSoutput.t148 commonsourceibias.t139 gnd.t327 gnd.t202 sky130_fd_pr__nfet_01v8 ad=1.155 pd=7.33 as=1.155 ps=7.33 w=7 l=1
X169 gnd.t136 gnd.t134 gnd.t135 gnd.t88 sky130_fd_pr__nfet_01v8 ad=2.73 pd=14.78 as=0 ps=0 w=7 l=0.9
X170 CSoutput.t147 commonsourceibias.t140 gnd.t326 gnd.t234 sky130_fd_pr__nfet_01v8 ad=1.155 pd=7.33 as=2.73 ps=14.78 w=7 l=1
X171 CSoutput.t146 commonsourceibias.t141 gnd.t325 gnd.t307 sky130_fd_pr__nfet_01v8 ad=1.155 pd=7.33 as=1.155 ps=7.33 w=7 l=1
X172 gnd.t133 gnd.t131 minus.t4 gnd.t132 sky130_fd_pr__nfet_01v8 ad=0.39 pd=2.78 as=0.165 ps=1.33 w=1 l=0.5
X173 vdd.t122 vdd.t119 vdd.t121 vdd.t120 sky130_fd_pr__pfet_01v8_lvt ad=3.51 pd=18.78 as=0 ps=0 w=9 l=0.5
X174 output.t8 CSoutput.t250 vdd.t58 gnd.t179 sky130_fd_pr__nfet_01v8_lvt ad=0.825 pd=5.33 as=0.825 ps=5.33 w=5 l=1
X175 vdd.t118 vdd.t116 vdd.t117 vdd.t109 sky130_fd_pr__pfet_01v8_lvt ad=3.51 pd=18.78 as=0 ps=0 w=9 l=0.5
X176 vdd.t256 a_n2848_n452.t53 a_n1986_8322.t11 vdd.t255 sky130_fd_pr__pfet_01v8_lvt ad=1.485 pd=9.33 as=1.485 ps=9.33 w=9 l=0.5
X177 a_n1986_8322.t10 a_n2848_n452.t54 vdd.t254 vdd.t253 sky130_fd_pr__pfet_01v8_lvt ad=1.485 pd=9.33 as=1.485 ps=9.33 w=9 l=0.5
X178 CSoutput.t54 a_n7636_8799.t76 vdd.t181 vdd.t180 sky130_fd_pr__pfet_01v8_lvt ad=1.32 pd=8.33 as=3.12 ps=16.78 w=8 l=0.5
X179 CSoutput.t55 a_n7636_8799.t77 vdd.t182 vdd.t149 sky130_fd_pr__pfet_01v8_lvt ad=1.32 pd=8.33 as=1.32 ps=8.33 w=8 l=0.5
X180 gnd.t130 gnd.t128 gnd.t129 gnd.t73 sky130_fd_pr__nfet_01v8 ad=2.73 pd=14.78 as=0 ps=0 w=7 l=1
X181 vdd.t267 a_n7636_8799.t78 CSoutput.t212 vdd.t22 sky130_fd_pr__pfet_01v8_lvt ad=1.32 pd=8.33 as=1.32 ps=8.33 w=8 l=0.5
X182 gnd.t127 gnd.t125 plus.t3 gnd.t126 sky130_fd_pr__nfet_01v8 ad=0.39 pd=2.78 as=0.165 ps=1.33 w=1 l=0.5
X183 vdd.t252 a_n2848_n452.t55 a_n1808_13878.t6 vdd.t251 sky130_fd_pr__pfet_01v8_lvt ad=1.485 pd=9.33 as=1.485 ps=9.33 w=9 l=0.5
X184 a_n7636_8799.t16 plus.t14 a_n3106_n452.t36 gnd.t176 sky130_fd_pr__nfet_01v8 ad=1.155 pd=7.33 as=2.73 ps=14.78 w=7 l=0.9
X185 a_n2848_n452.t47 minus.t11 a_n3106_n452.t55 gnd.t24 sky130_fd_pr__nfet_01v8 ad=1.155 pd=7.33 as=1.155 ps=7.33 w=7 l=0.9
X186 vdd.t115 vdd.t112 vdd.t114 vdd.t113 sky130_fd_pr__pfet_01v8_lvt ad=3.51 pd=18.78 as=0 ps=0 w=9 l=0.5
X187 a_n7636_8799.t15 plus.t15 a_n3106_n452.t35 gnd.t31 sky130_fd_pr__nfet_01v8 ad=1.155 pd=7.33 as=1.155 ps=7.33 w=7 l=0.9
X188 diffpairibias.t11 diffpairibias.t10 gnd.t173 gnd.t172 sky130_fd_pr__nfet_01v8 ad=2.73 pd=14.78 as=2.73 ps=14.78 w=7 l=1
X189 a_n2848_n452.t1 minus.t12 a_n3106_n452.t1 gnd.t1 sky130_fd_pr__nfet_01v8 ad=1.155 pd=7.33 as=1.155 ps=7.33 w=7 l=0.9
X190 vdd.t111 vdd.t108 vdd.t110 vdd.t109 sky130_fd_pr__pfet_01v8_lvt ad=3.51 pd=18.78 as=0 ps=0 w=9 l=0.5
X191 vdd.t268 a_n7636_8799.t79 CSoutput.t213 vdd.t20 sky130_fd_pr__pfet_01v8_lvt ad=1.32 pd=8.33 as=1.32 ps=8.33 w=8 l=0.5
X192 CSoutput.t145 commonsourceibias.t142 gnd.t324 gnd.t264 sky130_fd_pr__nfet_01v8 ad=1.155 pd=7.33 as=1.155 ps=7.33 w=7 l=1
X193 commonsourceibias.t79 commonsourceibias.t78 gnd.t323 gnd.t200 sky130_fd_pr__nfet_01v8 ad=1.155 pd=7.33 as=1.155 ps=7.33 w=7 l=1
X194 gnd.t322 commonsourceibias.t143 CSoutput.t144 gnd.t295 sky130_fd_pr__nfet_01v8 ad=1.155 pd=7.33 as=1.155 ps=7.33 w=7 l=1
X195 gnd.t321 commonsourceibias.t76 commonsourceibias.t77 gnd.t311 sky130_fd_pr__nfet_01v8 ad=1.155 pd=7.33 as=1.155 ps=7.33 w=7 l=1
X196 vdd.t107 vdd.t104 vdd.t106 vdd.t105 sky130_fd_pr__pfet_01v8_lvt ad=3.51 pd=18.78 as=0 ps=0 w=9 l=0.5
X197 a_n7636_8799.t27 a_n2848_n452.t56 a_n1986_8322.t16 vdd.t224 sky130_fd_pr__pfet_01v8_lvt ad=1.485 pd=9.33 as=1.485 ps=9.33 w=9 l=0.5
X198 a_n1986_8322.t9 a_n2848_n452.t57 vdd.t250 vdd.t249 sky130_fd_pr__pfet_01v8_lvt ad=3.51 pd=18.78 as=1.485 ps=9.33 w=9 l=0.5
X199 CSoutput.t143 commonsourceibias.t144 gnd.t320 gnd.t261 sky130_fd_pr__nfet_01v8 ad=1.155 pd=7.33 as=1.155 ps=7.33 w=7 l=1
X200 CSoutput.t8 a_n7636_8799.t80 vdd.t17 vdd.t16 sky130_fd_pr__pfet_01v8_lvt ad=1.32 pd=8.33 as=1.32 ps=8.33 w=8 l=0.5
X201 vdd.t19 a_n7636_8799.t81 CSoutput.t9 vdd.t18 sky130_fd_pr__pfet_01v8_lvt ad=1.32 pd=8.33 as=1.32 ps=8.33 w=8 l=0.5
X202 vdd.t209 a_n7636_8799.t82 CSoutput.t78 vdd.t37 sky130_fd_pr__pfet_01v8_lvt ad=1.32 pd=8.33 as=1.32 ps=8.33 w=8 l=0.5
X203 gnd.t124 gnd.t121 gnd.t123 gnd.t122 sky130_fd_pr__nfet_01v8_lvt ad=1.95 pd=10.78 as=0 ps=0 w=5 l=1
X204 a_n2848_n452.t32 a_n2848_n452.t31 a_n1808_13878.t12 vdd.t235 sky130_fd_pr__pfet_01v8_lvt ad=1.485 pd=9.33 as=1.485 ps=9.33 w=9 l=0.5
X205 a_n3106_n452.t47 minus.t13 a_n2848_n452.t40 gnd.t398 sky130_fd_pr__nfet_01v8 ad=1.155 pd=7.33 as=1.155 ps=7.33 w=7 l=0.9
X206 a_n7636_8799.t26 a_n2848_n452.t58 a_n1986_8322.t15 vdd.t248 sky130_fd_pr__pfet_01v8_lvt ad=1.485 pd=9.33 as=1.485 ps=9.33 w=9 l=0.5
X207 CSoutput.t79 a_n7636_8799.t83 vdd.t210 vdd.t39 sky130_fd_pr__pfet_01v8_lvt ad=1.32 pd=8.33 as=1.32 ps=8.33 w=8 l=0.5
X208 CSoutput.t142 commonsourceibias.t145 gnd.t319 gnd.t258 sky130_fd_pr__nfet_01v8 ad=1.155 pd=7.33 as=1.155 ps=7.33 w=7 l=1
X209 a_n1808_13878.t11 a_n2848_n452.t23 a_n2848_n452.t24 vdd.t247 sky130_fd_pr__pfet_01v8_lvt ad=1.485 pd=9.33 as=1.485 ps=9.33 w=9 l=0.5
X210 gnd.t318 commonsourceibias.t146 CSoutput.t141 gnd.t221 sky130_fd_pr__nfet_01v8 ad=1.155 pd=7.33 as=1.155 ps=7.33 w=7 l=1
X211 gnd.t317 commonsourceibias.t147 CSoutput.t140 gnd.t311 sky130_fd_pr__nfet_01v8 ad=1.155 pd=7.33 as=1.155 ps=7.33 w=7 l=1
X212 a_n2848_n452.t14 minus.t14 a_n3106_n452.t20 gnd.t48 sky130_fd_pr__nfet_01v8 ad=1.155 pd=7.33 as=1.155 ps=7.33 w=7 l=0.9
X213 a_n3106_n452.t34 plus.t16 a_n7636_8799.t7 gnd.t27 sky130_fd_pr__nfet_01v8 ad=1.155 pd=7.33 as=1.155 ps=7.33 w=7 l=0.9
X214 gnd.t316 commonsourceibias.t148 CSoutput.t139 gnd.t256 sky130_fd_pr__nfet_01v8 ad=1.155 pd=7.33 as=1.155 ps=7.33 w=7 l=1
X215 gnd.t315 commonsourceibias.t149 CSoutput.t138 gnd.t281 sky130_fd_pr__nfet_01v8 ad=1.155 pd=7.33 as=1.155 ps=7.33 w=7 l=1
X216 vdd.t57 CSoutput.t251 output.t7 gnd.t180 sky130_fd_pr__nfet_01v8_lvt ad=0.825 pd=5.33 as=0.825 ps=5.33 w=5 l=1
X217 commonsourceibias.t75 commonsourceibias.t74 gnd.t314 gnd.t313 sky130_fd_pr__nfet_01v8 ad=1.155 pd=7.33 as=1.155 ps=7.33 w=7 l=1
X218 gnd.t312 commonsourceibias.t150 CSoutput.t137 gnd.t311 sky130_fd_pr__nfet_01v8 ad=1.155 pd=7.33 as=1.155 ps=7.33 w=7 l=1
X219 gnd.t120 gnd.t118 gnd.t119 gnd.t84 sky130_fd_pr__nfet_01v8 ad=2.73 pd=14.78 as=0 ps=0 w=7 l=1
X220 gnd.t310 commonsourceibias.t151 CSoutput.t136 gnd.t241 sky130_fd_pr__nfet_01v8 ad=2.73 pd=14.78 as=1.155 ps=7.33 w=7 l=1
X221 CSoutput.t236 a_n7636_8799.t84 vdd.t292 vdd.t277 sky130_fd_pr__pfet_01v8_lvt ad=1.32 pd=8.33 as=1.32 ps=8.33 w=8 l=0.5
X222 vdd.t246 a_n2848_n452.t59 a_n1986_8322.t8 vdd.t245 sky130_fd_pr__pfet_01v8_lvt ad=1.485 pd=9.33 as=3.51 ps=18.78 w=9 l=0.5
X223 vdd.t293 a_n7636_8799.t85 CSoutput.t237 vdd.t200 sky130_fd_pr__pfet_01v8_lvt ad=1.32 pd=8.33 as=1.32 ps=8.33 w=8 l=0.5
X224 CSoutput.t135 commonsourceibias.t152 gnd.t309 gnd.t253 sky130_fd_pr__nfet_01v8 ad=1.155 pd=7.33 as=1.155 ps=7.33 w=7 l=1
X225 a_n3106_n452.t7 diffpairibias.t19 gnd.t21 gnd.t20 sky130_fd_pr__nfet_01v8 ad=2.73 pd=14.78 as=2.73 ps=14.78 w=7 l=1
X226 gnd.t61 gnd.t58 gnd.t60 gnd.t59 sky130_fd_pr__nfet_01v8 ad=2.73 pd=14.78 as=0 ps=0 w=7 l=1
X227 a_n3106_n452.t54 diffpairibias.t20 gnd.t407 gnd.t406 sky130_fd_pr__nfet_01v8 ad=2.73 pd=14.78 as=2.73 ps=14.78 w=7 l=1
X228 commonsourceibias.t73 commonsourceibias.t72 gnd.t308 gnd.t307 sky130_fd_pr__nfet_01v8 ad=1.155 pd=7.33 as=1.155 ps=7.33 w=7 l=1
X229 a_n7636_8799.t14 plus.t17 a_n3106_n452.t33 gnd.t38 sky130_fd_pr__nfet_01v8 ad=1.155 pd=7.33 as=1.155 ps=7.33 w=7 l=0.9
X230 CSoutput.t14 a_n7636_8799.t86 vdd.t28 vdd.t27 sky130_fd_pr__pfet_01v8_lvt ad=1.32 pd=8.33 as=1.32 ps=8.33 w=8 l=0.5
X231 vdd.t30 a_n7636_8799.t87 CSoutput.t15 vdd.t29 sky130_fd_pr__pfet_01v8_lvt ad=3.12 pd=16.78 as=1.32 ps=8.33 w=8 l=0.5
X232 gnd.t117 gnd.t115 gnd.t116 gnd.t96 sky130_fd_pr__nfet_01v8 ad=2.73 pd=14.78 as=0 ps=0 w=7 l=1
X233 vdd.t280 a_n7636_8799.t88 CSoutput.t224 vdd.t63 sky130_fd_pr__pfet_01v8_lvt ad=1.32 pd=8.33 as=1.32 ps=8.33 w=8 l=0.5
X234 CSoutput.t134 commonsourceibias.t153 gnd.t306 gnd.t264 sky130_fd_pr__nfet_01v8 ad=1.155 pd=7.33 as=1.155 ps=7.33 w=7 l=1
X235 a_n7636_8799.t33 plus.t18 a_n3106_n452.t32 gnd.t403 sky130_fd_pr__nfet_01v8 ad=1.155 pd=7.33 as=1.155 ps=7.33 w=7 l=0.9
X236 CSoutput.t133 commonsourceibias.t154 gnd.t305 gnd.t236 sky130_fd_pr__nfet_01v8 ad=1.155 pd=7.33 as=1.155 ps=7.33 w=7 l=1
X237 commonsourceibias.t33 commonsourceibias.t32 gnd.t304 gnd.t302 sky130_fd_pr__nfet_01v8 ad=1.155 pd=7.33 as=1.155 ps=7.33 w=7 l=1
X238 vdd.t281 a_n7636_8799.t89 CSoutput.t225 vdd.t24 sky130_fd_pr__pfet_01v8_lvt ad=1.32 pd=8.33 as=1.32 ps=8.33 w=8 l=0.5
X239 output.t17 outputibias.t8 gnd.t30 gnd.t29 sky130_fd_pr__nfet_01v8 ad=2.34 pd=12.78 as=2.34 ps=12.78 w=6 l=2
X240 vdd.t290 a_n7636_8799.t90 CSoutput.t234 vdd.t12 sky130_fd_pr__pfet_01v8_lvt ad=1.32 pd=8.33 as=1.32 ps=8.33 w=8 l=0.5
X241 CSoutput.t132 commonsourceibias.t155 gnd.t303 gnd.t302 sky130_fd_pr__nfet_01v8 ad=1.155 pd=7.33 as=1.155 ps=7.33 w=7 l=1
X242 commonsourceibias.t31 commonsourceibias.t30 gnd.t301 gnd.t274 sky130_fd_pr__nfet_01v8 ad=1.155 pd=7.33 as=1.155 ps=7.33 w=7 l=1
X243 CSoutput.t131 commonsourceibias.t156 gnd.t300 gnd.t225 sky130_fd_pr__nfet_01v8 ad=1.155 pd=7.33 as=1.155 ps=7.33 w=7 l=1
X244 minus.t3 gnd.t112 gnd.t114 gnd.t113 sky130_fd_pr__nfet_01v8 ad=0.165 pd=1.33 as=0.165 ps=1.33 w=1 l=0.5