* NGSPICE file created from opamp401.ext - technology: sky130A

.subckt opamp401 gnd CSoutput output vdd plus minus commonsourceibias outputibias
+ diffpairibias
X0 gnd.t360 commonsourceibias.t62 commonsourceibias.t63 gnd.t281 sky130_fd_pr__nfet_01v8 ad=1.155 pd=7.33 as=1.155 ps=7.33 w=7 l=1
X1 a_n7636_8799.t16 plus.t5 a_n3827_n3924.t17 gnd.t0 sky130_fd_pr__nfet_01v8 ad=1.155 pd=7.33 as=1.155 ps=7.33 w=7 l=0.7
X2 CSoutput.t215 a_n7636_8799.t28 vdd.t295 vdd.t236 sky130_fd_pr__pfet_01v8 ad=1.32 pd=8.33 as=1.32 ps=8.33 w=8 l=0.5
X3 a_n1808_13878.t19 a_n1986_13878.t24 a_n1986_13878.t25 vdd.t119 sky130_fd_pr__pfet_01v8 ad=1.485 pd=9.33 as=1.485 ps=9.33 w=9 l=0.5
X4 a_n1808_13878.t7 a_n1986_13878.t40 vdd.t116 vdd.t115 sky130_fd_pr__pfet_01v8 ad=1.485 pd=9.33 as=1.485 ps=9.33 w=9 l=0.5
X5 CSoutput.t95 commonsourceibias.t64 gnd.t357 gnd.t249 sky130_fd_pr__nfet_01v8 ad=1.155 pd=7.33 as=2.73 ps=14.78 w=7 l=1
X6 vdd.t294 a_n7636_8799.t29 CSoutput.t214 vdd.t229 sky130_fd_pr__pfet_01v8 ad=1.32 pd=8.33 as=1.32 ps=8.33 w=8 l=0.5
X7 CSoutput.t213 a_n7636_8799.t30 vdd.t293 vdd.t154 sky130_fd_pr__pfet_01v8 ad=1.32 pd=8.33 as=1.32 ps=8.33 w=8 l=0.5
X8 commonsourceibias.t61 commonsourceibias.t60 gnd.t359 gnd.t228 sky130_fd_pr__nfet_01v8 ad=1.155 pd=7.33 as=1.155 ps=7.33 w=7 l=1
X9 gnd.t358 commonsourceibias.t65 CSoutput.t94 gnd.t215 sky130_fd_pr__nfet_01v8 ad=1.155 pd=7.33 as=1.155 ps=7.33 w=7 l=1
X10 gnd.t356 commonsourceibias.t58 commonsourceibias.t59 gnd.t225 sky130_fd_pr__nfet_01v8 ad=1.155 pd=7.33 as=1.155 ps=7.33 w=7 l=1
X11 a_n3827_n3924.t38 diffpairibias.t20 gnd.t70 gnd.t69 sky130_fd_pr__nfet_01v8 ad=2.73 pd=14.78 as=2.73 ps=14.78 w=7 l=1
X12 CSoutput.t212 a_n7636_8799.t31 vdd.t292 vdd.t144 sky130_fd_pr__pfet_01v8 ad=1.32 pd=8.33 as=1.32 ps=8.33 w=8 l=0.5
X13 a_n3827_n3924.t9 plus.t6 a_n7636_8799.t15 gnd.t6 sky130_fd_pr__nfet_01v8 ad=1.155 pd=7.33 as=1.155 ps=7.33 w=7 l=0.7
X14 plus.t4 gnd.t195 gnd.t197 gnd.t196 sky130_fd_pr__nfet_01v8 ad=0.165 pd=1.33 as=0.165 ps=1.33 w=1 l=0.5
X15 gnd.t355 commonsourceibias.t20 commonsourceibias.t21 gnd.t201 sky130_fd_pr__nfet_01v8 ad=1.155 pd=7.33 as=1.155 ps=7.33 w=7 l=1
X16 vdd.t100 vdd.t98 vdd.t99 vdd.t52 sky130_fd_pr__pfet_01v8 ad=3.12 pd=16.78 as=0 ps=0 w=8 l=0.5
X17 a_n1986_8322.t19 a_n1986_13878.t41 a_n7636_8799.t23 vdd.t129 sky130_fd_pr__pfet_01v8 ad=1.485 pd=9.33 as=1.485 ps=9.33 w=9 l=0.5
X18 commonsourceibias.t19 commonsourceibias.t18 gnd.t354 gnd.t203 sky130_fd_pr__nfet_01v8 ad=1.155 pd=7.33 as=1.155 ps=7.33 w=7 l=1
X19 gnd.t353 commonsourceibias.t66 CSoutput.t93 gnd.t274 sky130_fd_pr__nfet_01v8 ad=1.155 pd=7.33 as=1.155 ps=7.33 w=7 l=1
X20 CSoutput.t211 a_n7636_8799.t32 vdd.t291 vdd.t195 sky130_fd_pr__pfet_01v8 ad=1.32 pd=8.33 as=1.32 ps=8.33 w=8 l=0.5
X21 vdd.t281 a_n7636_8799.t33 CSoutput.t210 vdd.t222 sky130_fd_pr__pfet_01v8 ad=1.32 pd=8.33 as=1.32 ps=8.33 w=8 l=0.5
X22 gnd.t200 gnd.t198 gnd.t199 gnd.t121 sky130_fd_pr__nfet_01v8 ad=2.73 pd=14.78 as=0 ps=0 w=7 l=1
X23 gnd.t194 gnd.t191 gnd.t193 gnd.t192 sky130_fd_pr__nfet_01v8 ad=2.34 pd=12.78 as=0 ps=0 w=6 l=2
X24 vdd.t290 a_n7636_8799.t34 CSoutput.t209 vdd.t251 sky130_fd_pr__pfet_01v8 ad=1.32 pd=8.33 as=1.32 ps=8.33 w=8 l=0.5
X25 a_n1986_13878.t2 minus.t5 a_n3827_n3924.t2 gnd.t8 sky130_fd_pr__nfet_01v8 ad=1.155 pd=7.33 as=1.155 ps=7.33 w=7 l=0.7
X26 CSoutput.t208 a_n7636_8799.t35 vdd.t289 vdd.t197 sky130_fd_pr__pfet_01v8 ad=1.32 pd=8.33 as=1.32 ps=8.33 w=8 l=0.5
X27 vdd.t283 a_n7636_8799.t36 CSoutput.t207 vdd.t248 sky130_fd_pr__pfet_01v8 ad=1.32 pd=8.33 as=1.32 ps=8.33 w=8 l=0.5
X28 vdd.t288 a_n7636_8799.t37 CSoutput.t206 vdd.t273 sky130_fd_pr__pfet_01v8 ad=1.32 pd=8.33 as=1.32 ps=8.33 w=8 l=0.5
X29 commonsourceibias.t17 commonsourceibias.t16 gnd.t352 gnd.t279 sky130_fd_pr__nfet_01v8 ad=1.155 pd=7.33 as=1.155 ps=7.33 w=7 l=1
X30 a_n7636_8799.t25 a_n1986_13878.t42 a_n1986_8322.t18 vdd.t133 sky130_fd_pr__pfet_01v8 ad=1.485 pd=9.33 as=3.51 ps=18.78 w=9 l=0.5
X31 CSoutput.t205 a_n7636_8799.t38 vdd.t287 vdd.t150 sky130_fd_pr__pfet_01v8 ad=1.32 pd=8.33 as=3.12 ps=16.78 w=8 l=0.5
X32 gnd.t351 commonsourceibias.t67 CSoutput.t92 gnd.t219 sky130_fd_pr__nfet_01v8 ad=1.155 pd=7.33 as=1.155 ps=7.33 w=7 l=1
X33 CSoutput.t91 commonsourceibias.t68 gnd.t350 gnd.t233 sky130_fd_pr__nfet_01v8 ad=1.155 pd=7.33 as=1.155 ps=7.33 w=7 l=1
X34 a_n3827_n3924.t36 minus.t6 a_n1986_13878.t37 gnd.t68 sky130_fd_pr__nfet_01v8 ad=2.73 pd=14.78 as=1.155 ps=7.33 w=7 l=0.7
X35 gnd.t190 gnd.t188 minus.t4 gnd.t189 sky130_fd_pr__nfet_01v8 ad=0.165 pd=1.33 as=0.39 ps=2.78 w=1 l=0.5
X36 gnd.t349 commonsourceibias.t14 commonsourceibias.t15 gnd.t274 sky130_fd_pr__nfet_01v8 ad=1.155 pd=7.33 as=1.155 ps=7.33 w=7 l=1
X37 CSoutput.t216 a_n1986_8322.t20 sky130_fd_pr__cap_mim_m3_1 l=12 w=12
X38 CSoutput.t90 commonsourceibias.t69 gnd.t348 gnd.t285 sky130_fd_pr__nfet_01v8 ad=1.155 pd=7.33 as=1.155 ps=7.33 w=7 l=1
X39 CSoutput.t204 a_n7636_8799.t39 vdd.t282 vdd.t236 sky130_fd_pr__pfet_01v8 ad=1.32 pd=8.33 as=1.32 ps=8.33 w=8 l=0.5
X40 vdd.t97 vdd.t95 vdd.t96 vdd.t30 sky130_fd_pr__pfet_01v8 ad=3.12 pd=16.78 as=0 ps=0 w=8 l=0.5
X41 CSoutput.t203 a_n7636_8799.t40 vdd.t284 vdd.t188 sky130_fd_pr__pfet_01v8 ad=1.32 pd=8.33 as=1.32 ps=8.33 w=8 l=0.5
X42 a_n3827_n3924.t30 diffpairibias.t21 gnd.t54 gnd.t53 sky130_fd_pr__nfet_01v8 ad=2.73 pd=14.78 as=2.73 ps=14.78 w=7 l=1
X43 commonsourceibias.t13 commonsourceibias.t12 gnd.t347 gnd.t209 sky130_fd_pr__nfet_01v8 ad=1.155 pd=7.33 as=1.155 ps=7.33 w=7 l=1
X44 gnd.t187 gnd.t185 gnd.t186 gnd.t132 sky130_fd_pr__nfet_01v8 ad=2.73 pd=14.78 as=0 ps=0 w=7 l=0.7
X45 CSoutput.t89 commonsourceibias.t70 gnd.t346 gnd.t285 sky130_fd_pr__nfet_01v8 ad=1.155 pd=7.33 as=1.155 ps=7.33 w=7 l=1
X46 CSoutput.t202 a_n7636_8799.t41 vdd.t286 vdd.t144 sky130_fd_pr__pfet_01v8 ad=1.32 pd=8.33 as=1.32 ps=8.33 w=8 l=0.5
X47 a_n3827_n3924.t14 plus.t7 a_n7636_8799.t14 gnd.t1 sky130_fd_pr__nfet_01v8 ad=1.155 pd=7.33 as=1.155 ps=7.33 w=7 l=0.7
X48 gnd.t345 commonsourceibias.t10 commonsourceibias.t11 gnd.t264 sky130_fd_pr__nfet_01v8 ad=1.155 pd=7.33 as=1.155 ps=7.33 w=7 l=1
X49 CSoutput.t88 commonsourceibias.t71 gnd.t344 gnd.t221 sky130_fd_pr__nfet_01v8 ad=1.155 pd=7.33 as=2.73 ps=14.78 w=7 l=1
X50 a_n1808_13878.t18 a_n1986_13878.t12 a_n1986_13878.t13 vdd.t125 sky130_fd_pr__pfet_01v8 ad=1.485 pd=9.33 as=3.51 ps=18.78 w=9 l=0.5
X51 vdd.t285 a_n7636_8799.t42 CSoutput.t201 vdd.t273 sky130_fd_pr__pfet_01v8 ad=1.32 pd=8.33 as=1.32 ps=8.33 w=8 l=0.5
X52 vdd.t94 vdd.t92 vdd.t93 vdd.t52 sky130_fd_pr__pfet_01v8 ad=3.12 pd=16.78 as=0 ps=0 w=8 l=0.5
X53 CSoutput.t200 a_n7636_8799.t43 vdd.t280 vdd.t227 sky130_fd_pr__pfet_01v8 ad=1.32 pd=8.33 as=1.32 ps=8.33 w=8 l=0.5
X54 a_n1986_13878.t33 a_n1986_13878.t32 a_n1808_13878.t17 vdd.t104 sky130_fd_pr__pfet_01v8 ad=1.485 pd=9.33 as=1.485 ps=9.33 w=9 l=0.5
X55 output.t3 outputibias.t8 gnd.t45 gnd.t44 sky130_fd_pr__nfet_01v8 ad=2.34 pd=12.78 as=2.34 ps=12.78 w=6 l=2
X56 CSoutput.t217 a_n1986_8322.t21 sky130_fd_pr__cap_mim_m3_1 l=12 w=12
X57 a_n7636_8799.t13 plus.t8 a_n3827_n3924.t13 gnd.t37 sky130_fd_pr__nfet_01v8 ad=1.155 pd=7.33 as=1.155 ps=7.33 w=7 l=0.7
X58 CSoutput.t199 a_n7636_8799.t44 vdd.t279 vdd.t195 sky130_fd_pr__pfet_01v8 ad=1.32 pd=8.33 as=1.32 ps=8.33 w=8 l=0.5
X59 vdd.t91 vdd.t89 vdd.t90 vdd.t65 sky130_fd_pr__pfet_01v8 ad=3.51 pd=18.78 as=0 ps=0 w=9 l=0.5
X60 vdd.t278 a_n7636_8799.t45 CSoutput.t198 vdd.t222 sky130_fd_pr__pfet_01v8 ad=1.32 pd=8.33 as=1.32 ps=8.33 w=8 l=0.5
X61 vdd.t22 CSoutput.t218 output.t19 gnd.t26 sky130_fd_pr__nfet_01v8 ad=0.825 pd=5.33 as=0.825 ps=5.33 w=5 l=1
X62 diffpairibias.t19 diffpairibias.t18 gnd.t367 gnd.t366 sky130_fd_pr__nfet_01v8 ad=2.73 pd=14.78 as=2.73 ps=14.78 w=7 l=1
X63 CSoutput.t87 commonsourceibias.t72 gnd.t343 gnd.t247 sky130_fd_pr__nfet_01v8 ad=1.155 pd=7.33 as=1.155 ps=7.33 w=7 l=1
X64 a_n1986_13878.t4 minus.t7 a_n3827_n3924.t21 gnd.t32 sky130_fd_pr__nfet_01v8 ad=1.155 pd=7.33 as=1.155 ps=7.33 w=7 l=0.7
X65 CSoutput.t86 commonsourceibias.t73 gnd.t342 gnd.t294 sky130_fd_pr__nfet_01v8 ad=1.155 pd=7.33 as=1.155 ps=7.33 w=7 l=1
X66 CSoutput.t85 commonsourceibias.t74 gnd.t341 gnd.t266 sky130_fd_pr__nfet_01v8 ad=1.155 pd=7.33 as=1.155 ps=7.33 w=7 l=1
X67 CSoutput.t197 a_n7636_8799.t46 vdd.t277 vdd.t231 sky130_fd_pr__pfet_01v8 ad=1.32 pd=8.33 as=1.32 ps=8.33 w=8 l=0.5
X68 commonsourceibias.t9 commonsourceibias.t8 gnd.t340 gnd.t249 sky130_fd_pr__nfet_01v8 ad=1.155 pd=7.33 as=2.73 ps=14.78 w=7 l=1
X69 gnd.t184 gnd.t182 gnd.t183 gnd.t85 sky130_fd_pr__nfet_01v8 ad=2.73 pd=14.78 as=0 ps=0 w=7 l=1
X70 vdd.t276 a_n7636_8799.t47 CSoutput.t196 vdd.t161 sky130_fd_pr__pfet_01v8 ad=1.32 pd=8.33 as=1.32 ps=8.33 w=8 l=0.5
X71 vdd.t275 a_n7636_8799.t48 CSoutput.t195 vdd.t248 sky130_fd_pr__pfet_01v8 ad=1.32 pd=8.33 as=1.32 ps=8.33 w=8 l=0.5
X72 vdd.t274 a_n7636_8799.t49 CSoutput.t194 vdd.t273 sky130_fd_pr__pfet_01v8 ad=1.32 pd=8.33 as=1.32 ps=8.33 w=8 l=0.5
X73 vdd.t234 a_n7636_8799.t50 CSoutput.t193 vdd.t219 sky130_fd_pr__pfet_01v8 ad=1.32 pd=8.33 as=1.32 ps=8.33 w=8 l=0.5
X74 diffpairibias.t17 diffpairibias.t16 gnd.t56 gnd.t55 sky130_fd_pr__nfet_01v8 ad=2.73 pd=14.78 as=2.73 ps=14.78 w=7 l=1
X75 CSoutput.t192 a_n7636_8799.t51 vdd.t272 vdd.t150 sky130_fd_pr__pfet_01v8 ad=1.32 pd=8.33 as=3.12 ps=16.78 w=8 l=0.5
X76 CSoutput.t191 a_n7636_8799.t52 vdd.t271 vdd.t168 sky130_fd_pr__pfet_01v8 ad=1.32 pd=8.33 as=1.32 ps=8.33 w=8 l=0.5
X77 gnd.t181 gnd.t179 gnd.t180 gnd.t85 sky130_fd_pr__nfet_01v8 ad=2.73 pd=14.78 as=0 ps=0 w=7 l=1
X78 vdd.t270 a_n7636_8799.t53 CSoutput.t190 vdd.t146 sky130_fd_pr__pfet_01v8 ad=1.32 pd=8.33 as=1.32 ps=8.33 w=8 l=0.5
X79 CSoutput.t84 commonsourceibias.t75 gnd.t339 gnd.t266 sky130_fd_pr__nfet_01v8 ad=1.155 pd=7.33 as=1.155 ps=7.33 w=7 l=1
X80 CSoutput.t189 a_n7636_8799.t54 vdd.t269 vdd.t256 sky130_fd_pr__pfet_01v8 ad=1.32 pd=8.33 as=1.32 ps=8.33 w=8 l=0.5
X81 CSoutput.t188 a_n7636_8799.t55 vdd.t268 vdd.t188 sky130_fd_pr__pfet_01v8 ad=1.32 pd=8.33 as=1.32 ps=8.33 w=8 l=0.5
X82 CSoutput.t187 a_n7636_8799.t56 vdd.t267 vdd.t192 sky130_fd_pr__pfet_01v8 ad=1.32 pd=8.33 as=3.12 ps=16.78 w=8 l=0.5
X83 CSoutput.t186 a_n7636_8799.t57 vdd.t266 vdd.t256 sky130_fd_pr__pfet_01v8 ad=1.32 pd=8.33 as=1.32 ps=8.33 w=8 l=0.5
X84 vdd.t265 a_n7636_8799.t58 CSoutput.t185 vdd.t253 sky130_fd_pr__pfet_01v8 ad=1.32 pd=8.33 as=1.32 ps=8.33 w=8 l=0.5
X85 gnd.t338 commonsourceibias.t76 CSoutput.t83 gnd.t243 sky130_fd_pr__nfet_01v8 ad=1.155 pd=7.33 as=1.155 ps=7.33 w=7 l=1
X86 gnd.t178 gnd.t175 gnd.t177 gnd.t176 sky130_fd_pr__nfet_01v8 ad=2.34 pd=12.78 as=0 ps=0 w=6 l=2
X87 CSoutput.t82 commonsourceibias.t77 gnd.t337 gnd.t262 sky130_fd_pr__nfet_01v8 ad=1.155 pd=7.33 as=1.155 ps=7.33 w=7 l=1
X88 gnd.t336 commonsourceibias.t78 CSoutput.t81 gnd.t230 sky130_fd_pr__nfet_01v8 ad=2.73 pd=14.78 as=1.155 ps=7.33 w=7 l=1
X89 a_n3827_n3924.t18 plus.t9 a_n7636_8799.t12 gnd.t7 sky130_fd_pr__nfet_01v8 ad=2.73 pd=14.78 as=1.155 ps=7.33 w=7 l=0.7
X90 gnd.t174 gnd.t172 minus.t3 gnd.t173 sky130_fd_pr__nfet_01v8 ad=0.165 pd=1.33 as=0.165 ps=1.33 w=1 l=0.5
X91 gnd.t171 gnd.t169 gnd.t170 gnd.t121 sky130_fd_pr__nfet_01v8 ad=2.73 pd=14.78 as=0 ps=0 w=7 l=1
X92 a_n3827_n3924.t34 diffpairibias.t22 gnd.t67 gnd.t66 sky130_fd_pr__nfet_01v8 ad=2.73 pd=14.78 as=2.73 ps=14.78 w=7 l=1
X93 vdd.t264 a_n7636_8799.t59 CSoutput.t184 vdd.t216 sky130_fd_pr__pfet_01v8 ad=1.32 pd=8.33 as=1.32 ps=8.33 w=8 l=0.5
X94 CSoutput.t80 commonsourceibias.t79 gnd.t332 gnd.t213 sky130_fd_pr__nfet_01v8 ad=1.155 pd=7.33 as=1.155 ps=7.33 w=7 l=1
X95 a_n1986_13878.t31 a_n1986_13878.t30 a_n1808_13878.t16 vdd.t129 sky130_fd_pr__pfet_01v8 ad=1.485 pd=9.33 as=1.485 ps=9.33 w=9 l=0.5
X96 vdd.t263 a_n7636_8799.t60 CSoutput.t183 vdd.t199 sky130_fd_pr__pfet_01v8 ad=1.32 pd=8.33 as=1.32 ps=8.33 w=8 l=0.5
X97 a_n7636_8799.t20 a_n1986_13878.t43 a_n1986_8322.t17 vdd.t121 sky130_fd_pr__pfet_01v8 ad=1.485 pd=9.33 as=1.485 ps=9.33 w=9 l=0.5
X98 vdd.t262 a_n7636_8799.t61 CSoutput.t182 vdd.t251 sky130_fd_pr__pfet_01v8 ad=1.32 pd=8.33 as=1.32 ps=8.33 w=8 l=0.5
X99 a_n1986_13878.t19 a_n1986_13878.t18 a_n1808_13878.t15 vdd.t132 sky130_fd_pr__pfet_01v8 ad=3.51 pd=18.78 as=1.485 ps=9.33 w=9 l=0.5
X100 vdd.t261 a_n7636_8799.t62 CSoutput.t181 vdd.t253 sky130_fd_pr__pfet_01v8 ad=1.32 pd=8.33 as=1.32 ps=8.33 w=8 l=0.5
X101 outputibias.t7 outputibias.t6 gnd.t76 gnd.t75 sky130_fd_pr__nfet_01v8 ad=2.34 pd=12.78 as=2.34 ps=12.78 w=6 l=2
X102 commonsourceibias.t7 commonsourceibias.t6 gnd.t335 gnd.t233 sky130_fd_pr__nfet_01v8 ad=1.155 pd=7.33 as=1.155 ps=7.33 w=7 l=1
X103 gnd.t334 commonsourceibias.t80 CSoutput.t79 gnd.t241 sky130_fd_pr__nfet_01v8 ad=1.155 pd=7.33 as=1.155 ps=7.33 w=7 l=1
X104 gnd.t168 gnd.t166 gnd.t167 gnd.t89 sky130_fd_pr__nfet_01v8 ad=2.73 pd=14.78 as=0 ps=0 w=7 l=1
X105 CSoutput.t78 commonsourceibias.t81 gnd.t333 gnd.t228 sky130_fd_pr__nfet_01v8 ad=1.155 pd=7.33 as=1.155 ps=7.33 w=7 l=1
X106 gnd.t331 commonsourceibias.t4 commonsourceibias.t5 gnd.t211 sky130_fd_pr__nfet_01v8 ad=1.155 pd=7.33 as=1.155 ps=7.33 w=7 l=1
X107 vdd.t260 a_n7636_8799.t63 CSoutput.t180 vdd.t165 sky130_fd_pr__pfet_01v8 ad=1.32 pd=8.33 as=1.32 ps=8.33 w=8 l=0.5
X108 CSoutput.t77 commonsourceibias.t82 gnd.t330 gnd.t285 sky130_fd_pr__nfet_01v8 ad=1.155 pd=7.33 as=1.155 ps=7.33 w=7 l=1
X109 CSoutput.t179 a_n7636_8799.t64 vdd.t235 vdd.t203 sky130_fd_pr__pfet_01v8 ad=1.32 pd=8.33 as=1.32 ps=8.33 w=8 l=0.5
X110 diffpairibias.t15 diffpairibias.t14 gnd.t52 gnd.t51 sky130_fd_pr__nfet_01v8 ad=2.73 pd=14.78 as=2.73 ps=14.78 w=7 l=1
X111 a_n1986_13878.t38 minus.t8 a_n3827_n3924.t37 gnd.t39 sky130_fd_pr__nfet_01v8 ad=1.155 pd=7.33 as=1.155 ps=7.33 w=7 l=0.7
X112 vdd.t88 vdd.t86 vdd.t87 vdd.t73 sky130_fd_pr__pfet_01v8 ad=3.51 pd=18.78 as=0 ps=0 w=9 l=0.5
X113 vdd.t259 a_n7636_8799.t65 CSoutput.t178 vdd.t219 sky130_fd_pr__pfet_01v8 ad=1.32 pd=8.33 as=1.32 ps=8.33 w=8 l=0.5
X114 CSoutput.t177 a_n7636_8799.t66 vdd.t258 vdd.t168 sky130_fd_pr__pfet_01v8 ad=1.32 pd=8.33 as=1.32 ps=8.33 w=8 l=0.5
X115 vdd.t85 vdd.t82 vdd.t84 vdd.t83 sky130_fd_pr__pfet_01v8 ad=3.51 pd=18.78 as=0 ps=0 w=9 l=0.5
X116 gnd.t329 commonsourceibias.t83 CSoutput.t76 gnd.t235 sky130_fd_pr__nfet_01v8 ad=2.73 pd=14.78 as=1.155 ps=7.33 w=7 l=1
X117 gnd.t165 gnd.t163 gnd.t164 gnd.t107 sky130_fd_pr__nfet_01v8 ad=2.73 pd=14.78 as=0 ps=0 w=7 l=0.7
X118 a_n3827_n3924.t26 minus.t9 a_n1986_13878.t8 gnd.t42 sky130_fd_pr__nfet_01v8 ad=1.155 pd=7.33 as=1.155 ps=7.33 w=7 l=0.7
X119 vdd.t81 vdd.t79 vdd.t80 vdd.t26 sky130_fd_pr__pfet_01v8 ad=3.51 pd=18.78 as=0 ps=0 w=9 l=0.5
X120 vdd.t78 vdd.t76 vdd.t77 vdd.t69 sky130_fd_pr__pfet_01v8 ad=3.51 pd=18.78 as=0 ps=0 w=9 l=0.5
X121 vdd.t17 a_n1986_13878.t44 a_n1986_8322.t7 vdd.t16 sky130_fd_pr__pfet_01v8 ad=1.485 pd=9.33 as=1.485 ps=9.33 w=9 l=0.5
X122 gnd.t328 commonsourceibias.t2 commonsourceibias.t3 gnd.t223 sky130_fd_pr__nfet_01v8 ad=1.155 pd=7.33 as=1.155 ps=7.33 w=7 l=1
X123 CSoutput.t75 commonsourceibias.t84 gnd.t327 gnd.t239 sky130_fd_pr__nfet_01v8 ad=1.155 pd=7.33 as=1.155 ps=7.33 w=7 l=1
X124 output.t18 CSoutput.t219 vdd.t122 gnd.t61 sky130_fd_pr__nfet_01v8 ad=0.825 pd=5.33 as=0.825 ps=5.33 w=5 l=1
X125 CSoutput.t74 commonsourceibias.t85 gnd.t326 gnd.t279 sky130_fd_pr__nfet_01v8 ad=1.155 pd=7.33 as=1.155 ps=7.33 w=7 l=1
X126 a_n1986_8322.t6 a_n1986_13878.t45 vdd.t4 vdd.t3 sky130_fd_pr__pfet_01v8 ad=1.485 pd=9.33 as=1.485 ps=9.33 w=9 l=0.5
X127 a_n3827_n3924.t32 diffpairibias.t23 gnd.t60 gnd.t59 sky130_fd_pr__nfet_01v8 ad=2.73 pd=14.78 as=2.73 ps=14.78 w=7 l=1
X128 CSoutput.t176 a_n7636_8799.t67 vdd.t257 vdd.t256 sky130_fd_pr__pfet_01v8 ad=1.32 pd=8.33 as=1.32 ps=8.33 w=8 l=0.5
X129 CSoutput.t175 a_n7636_8799.t68 vdd.t255 vdd.t192 sky130_fd_pr__pfet_01v8 ad=1.32 pd=8.33 as=3.12 ps=16.78 w=8 l=0.5
X130 gnd.t325 commonsourceibias.t86 CSoutput.t73 gnd.t281 sky130_fd_pr__nfet_01v8 ad=1.155 pd=7.33 as=1.155 ps=7.33 w=7 l=1
X131 vdd.t254 a_n7636_8799.t69 CSoutput.t174 vdd.t253 sky130_fd_pr__pfet_01v8 ad=1.32 pd=8.33 as=1.32 ps=8.33 w=8 l=0.5
X132 a_n3827_n3924.t23 minus.t10 a_n1986_13878.t5 gnd.t36 sky130_fd_pr__nfet_01v8 ad=1.155 pd=7.33 as=1.155 ps=7.33 w=7 l=0.7
X133 gnd.t162 gnd.t160 plus.t3 gnd.t161 sky130_fd_pr__nfet_01v8 ad=0.165 pd=1.33 as=0.39 ps=2.78 w=1 l=0.5
X134 commonsourceibias.t1 commonsourceibias.t0 gnd.t324 gnd.t221 sky130_fd_pr__nfet_01v8 ad=1.155 pd=7.33 as=2.73 ps=14.78 w=7 l=1
X135 vdd.t21 a_n1986_13878.t46 a_n1808_13878.t6 vdd.t20 sky130_fd_pr__pfet_01v8 ad=1.485 pd=9.33 as=1.485 ps=9.33 w=9 l=0.5
X136 gnd.t323 commonsourceibias.t87 CSoutput.t72 gnd.t254 sky130_fd_pr__nfet_01v8 ad=1.155 pd=7.33 as=1.155 ps=7.33 w=7 l=1
X137 a_n3827_n3924.t19 plus.t10 a_n7636_8799.t11 gnd.t48 sky130_fd_pr__nfet_01v8 ad=1.155 pd=7.33 as=1.155 ps=7.33 w=7 l=0.7
X138 vdd.t75 vdd.t72 vdd.t74 vdd.t73 sky130_fd_pr__pfet_01v8 ad=3.51 pd=18.78 as=0 ps=0 w=9 l=0.5
X139 gnd.t322 commonsourceibias.t28 commonsourceibias.t29 gnd.t219 sky130_fd_pr__nfet_01v8 ad=1.155 pd=7.33 as=1.155 ps=7.33 w=7 l=1
X140 output.t17 CSoutput.t220 vdd.t123 gnd.t62 sky130_fd_pr__nfet_01v8 ad=0.825 pd=5.33 as=0.825 ps=5.33 w=5 l=1
X141 CSoutput.t71 commonsourceibias.t88 gnd.t321 gnd.t247 sky130_fd_pr__nfet_01v8 ad=1.155 pd=7.33 as=1.155 ps=7.33 w=7 l=1
X142 gnd.t320 commonsourceibias.t89 CSoutput.t70 gnd.t215 sky130_fd_pr__nfet_01v8 ad=1.155 pd=7.33 as=1.155 ps=7.33 w=7 l=1
X143 vdd.t71 vdd.t68 vdd.t70 vdd.t69 sky130_fd_pr__pfet_01v8 ad=3.51 pd=18.78 as=0 ps=0 w=9 l=0.5
X144 vdd.t252 a_n7636_8799.t70 CSoutput.t173 vdd.t251 sky130_fd_pr__pfet_01v8 ad=1.32 pd=8.33 as=1.32 ps=8.33 w=8 l=0.5
X145 CSoutput.t69 commonsourceibias.t90 gnd.t319 gnd.t262 sky130_fd_pr__nfet_01v8 ad=1.155 pd=7.33 as=1.155 ps=7.33 w=7 l=1
X146 a_n7636_8799.t10 plus.t11 a_n3827_n3924.t6 gnd.t363 sky130_fd_pr__nfet_01v8 ad=1.155 pd=7.33 as=2.73 ps=14.78 w=7 l=0.7
X147 a_n7636_8799.t9 plus.t12 a_n3827_n3924.t5 gnd.t35 sky130_fd_pr__nfet_01v8 ad=1.155 pd=7.33 as=2.73 ps=14.78 w=7 l=0.7
X148 commonsourceibias.t27 commonsourceibias.t26 gnd.t318 gnd.t207 sky130_fd_pr__nfet_01v8 ad=1.155 pd=7.33 as=1.155 ps=7.33 w=7 l=1
X149 vdd.t67 vdd.t64 vdd.t66 vdd.t65 sky130_fd_pr__pfet_01v8 ad=3.51 pd=18.78 as=0 ps=0 w=9 l=0.5
X150 a_n1986_8322.t5 a_n1986_13878.t47 vdd.t19 vdd.t18 sky130_fd_pr__pfet_01v8 ad=3.51 pd=18.78 as=1.485 ps=9.33 w=9 l=0.5
X151 a_n7636_8799.t17 a_n1986_13878.t48 a_n1986_8322.t16 vdd.t101 sky130_fd_pr__pfet_01v8 ad=1.485 pd=9.33 as=1.485 ps=9.33 w=9 l=0.5
X152 gnd.t317 commonsourceibias.t91 CSoutput.t68 gnd.t237 sky130_fd_pr__nfet_01v8 ad=1.155 pd=7.33 as=1.155 ps=7.33 w=7 l=1
X153 gnd.t159 gnd.t157 gnd.t158 gnd.t103 sky130_fd_pr__nfet_01v8 ad=2.73 pd=14.78 as=0 ps=0 w=7 l=1
X154 CSoutput.t172 a_n7636_8799.t71 vdd.t250 vdd.t179 sky130_fd_pr__pfet_01v8 ad=1.32 pd=8.33 as=1.32 ps=8.33 w=8 l=0.5
X155 diffpairibias.t13 diffpairibias.t12 gnd.t5 gnd.t4 sky130_fd_pr__nfet_01v8 ad=2.73 pd=14.78 as=2.73 ps=14.78 w=7 l=1
X156 vdd.t249 a_n7636_8799.t72 CSoutput.t171 vdd.t248 sky130_fd_pr__pfet_01v8 ad=1.32 pd=8.33 as=1.32 ps=8.33 w=8 l=0.5
X157 a_n1986_13878.t3 minus.t11 a_n3827_n3924.t20 gnd.t31 sky130_fd_pr__nfet_01v8 ad=1.155 pd=7.33 as=1.155 ps=7.33 w=7 l=0.7
X158 a_n1986_13878.t23 a_n1986_13878.t22 a_n1808_13878.t14 vdd.t120 sky130_fd_pr__pfet_01v8 ad=1.485 pd=9.33 as=1.485 ps=9.33 w=9 l=0.5
X159 vdd.t247 a_n7636_8799.t73 CSoutput.t170 vdd.t165 sky130_fd_pr__pfet_01v8 ad=1.32 pd=8.33 as=1.32 ps=8.33 w=8 l=0.5
X160 a_n7636_8799.t27 a_n1986_13878.t49 a_n1986_8322.t15 vdd.t119 sky130_fd_pr__pfet_01v8 ad=1.485 pd=9.33 as=1.485 ps=9.33 w=9 l=0.5
X161 CSoutput.t169 a_n7636_8799.t74 vdd.t246 vdd.t203 sky130_fd_pr__pfet_01v8 ad=1.32 pd=8.33 as=1.32 ps=8.33 w=8 l=0.5
X162 gnd.t316 commonsourceibias.t24 commonsourceibias.t25 gnd.t215 sky130_fd_pr__nfet_01v8 ad=1.155 pd=7.33 as=1.155 ps=7.33 w=7 l=1
X163 a_n1808_13878.t13 a_n1986_13878.t10 a_n1986_13878.t11 vdd.t121 sky130_fd_pr__pfet_01v8 ad=1.485 pd=9.33 as=1.485 ps=9.33 w=9 l=0.5
X164 a_n3827_n3924.t27 minus.t12 a_n1986_13878.t9 gnd.t43 sky130_fd_pr__nfet_01v8 ad=1.155 pd=7.33 as=1.155 ps=7.33 w=7 l=0.7
X165 gnd.t315 commonsourceibias.t92 CSoutput.t67 gnd.t205 sky130_fd_pr__nfet_01v8 ad=1.155 pd=7.33 as=1.155 ps=7.33 w=7 l=1
X166 minus.t2 gnd.t154 gnd.t156 gnd.t155 sky130_fd_pr__nfet_01v8 ad=0.165 pd=1.33 as=0.165 ps=1.33 w=1 l=0.5
X167 output.t16 CSoutput.t221 vdd.t124 gnd.t63 sky130_fd_pr__nfet_01v8 ad=0.825 pd=5.33 as=0.825 ps=5.33 w=5 l=1
X168 gnd.t314 commonsourceibias.t93 CSoutput.t66 gnd.t223 sky130_fd_pr__nfet_01v8 ad=1.155 pd=7.33 as=1.155 ps=7.33 w=7 l=1
X169 CSoutput.t168 a_n7636_8799.t75 vdd.t245 vdd.t231 sky130_fd_pr__pfet_01v8 ad=1.32 pd=8.33 as=1.32 ps=8.33 w=8 l=0.5
X170 vdd.t114 a_n1986_13878.t50 a_n1986_8322.t4 vdd.t113 sky130_fd_pr__pfet_01v8 ad=1.485 pd=9.33 as=3.51 ps=18.78 w=9 l=0.5
X171 gnd.t153 gnd.t151 gnd.t152 gnd.t103 sky130_fd_pr__nfet_01v8 ad=2.73 pd=14.78 as=0 ps=0 w=7 l=1
X172 vdd.t244 a_n7636_8799.t76 CSoutput.t167 vdd.t229 sky130_fd_pr__pfet_01v8 ad=1.32 pd=8.33 as=1.32 ps=8.33 w=8 l=0.5
X173 output.t2 outputibias.t9 gnd.t25 gnd.t24 sky130_fd_pr__nfet_01v8 ad=2.34 pd=12.78 as=2.34 ps=12.78 w=6 l=2
X174 gnd.t150 gnd.t147 gnd.t149 gnd.t148 sky130_fd_pr__nfet_01v8 ad=1.95 pd=10.78 as=0 ps=0 w=5 l=1
X175 gnd.t146 gnd.t144 gnd.t145 gnd.t121 sky130_fd_pr__nfet_01v8 ad=2.73 pd=14.78 as=0 ps=0 w=7 l=1
X176 CSoutput.t166 a_n7636_8799.t77 vdd.t243 vdd.t227 sky130_fd_pr__pfet_01v8 ad=1.32 pd=8.33 as=1.32 ps=8.33 w=8 l=0.5
X177 outputibias.t5 outputibias.t4 gnd.t365 gnd.t364 sky130_fd_pr__nfet_01v8 ad=2.34 pd=12.78 as=2.34 ps=12.78 w=6 l=2
X178 vdd.t11 CSoutput.t222 output.t15 gnd.t19 sky130_fd_pr__nfet_01v8 ad=0.825 pd=5.33 as=0.825 ps=5.33 w=5 l=1
X179 vdd.t242 a_n7636_8799.t78 CSoutput.t165 vdd.t142 sky130_fd_pr__pfet_01v8 ad=3.12 pd=16.78 as=1.32 ps=8.33 w=8 l=0.5
X180 CSoutput.t65 commonsourceibias.t94 gnd.t313 gnd.t213 sky130_fd_pr__nfet_01v8 ad=1.155 pd=7.33 as=1.155 ps=7.33 w=7 l=1
X181 gnd.t312 commonsourceibias.t95 CSoutput.t64 gnd.t243 sky130_fd_pr__nfet_01v8 ad=1.155 pd=7.33 as=1.155 ps=7.33 w=7 l=1
X182 gnd.t311 commonsourceibias.t96 CSoutput.t63 gnd.t241 sky130_fd_pr__nfet_01v8 ad=1.155 pd=7.33 as=1.155 ps=7.33 w=7 l=1
X183 vdd.t241 a_n7636_8799.t79 CSoutput.t164 vdd.t181 sky130_fd_pr__pfet_01v8 ad=1.32 pd=8.33 as=1.32 ps=8.33 w=8 l=0.5
X184 a_n3827_n3924.t22 diffpairibias.t24 gnd.t34 gnd.t33 sky130_fd_pr__nfet_01v8 ad=2.73 pd=14.78 as=2.73 ps=14.78 w=7 l=1
X185 a_n3827_n3924.t39 diffpairibias.t25 gnd.t72 gnd.t71 sky130_fd_pr__nfet_01v8 ad=2.73 pd=14.78 as=2.73 ps=14.78 w=7 l=1
X186 outputibias.t3 outputibias.t2 gnd.t30 gnd.t29 sky130_fd_pr__nfet_01v8 ad=2.34 pd=12.78 as=2.34 ps=12.78 w=6 l=2
X187 vdd.t240 a_n7636_8799.t80 CSoutput.t163 vdd.t216 sky130_fd_pr__pfet_01v8 ad=1.32 pd=8.33 as=1.32 ps=8.33 w=8 l=0.5
X188 vdd.t239 a_n7636_8799.t81 CSoutput.t162 vdd.t186 sky130_fd_pr__pfet_01v8 ad=1.32 pd=8.33 as=1.32 ps=8.33 w=8 l=0.5
X189 gnd.t143 gnd.t141 gnd.t142 gnd.t89 sky130_fd_pr__nfet_01v8 ad=2.73 pd=14.78 as=0 ps=0 w=7 l=1
X190 gnd.t140 gnd.t138 gnd.t139 gnd.t89 sky130_fd_pr__nfet_01v8 ad=2.73 pd=14.78 as=0 ps=0 w=7 l=1
X191 CSoutput.t161 a_n7636_8799.t82 vdd.t238 vdd.t148 sky130_fd_pr__pfet_01v8 ad=1.32 pd=8.33 as=1.32 ps=8.33 w=8 l=0.5
X192 CSoutput.t160 a_n7636_8799.t83 vdd.t237 vdd.t236 sky130_fd_pr__pfet_01v8 ad=1.32 pd=8.33 as=1.32 ps=8.33 w=8 l=0.5
X193 vdd.t12 CSoutput.t223 output.t14 gnd.t20 sky130_fd_pr__nfet_01v8 ad=0.825 pd=5.33 as=0.825 ps=5.33 w=5 l=1
X194 CSoutput.t159 a_n7636_8799.t84 vdd.t233 vdd.t211 sky130_fd_pr__pfet_01v8 ad=1.32 pd=8.33 as=1.32 ps=8.33 w=8 l=0.5
X195 CSoutput.t62 commonsourceibias.t97 gnd.t310 gnd.t294 sky130_fd_pr__nfet_01v8 ad=1.155 pd=7.33 as=1.155 ps=7.33 w=7 l=1
X196 output.t13 CSoutput.t224 vdd.t13 gnd.t21 sky130_fd_pr__nfet_01v8 ad=0.825 pd=5.33 as=0.825 ps=5.33 w=5 l=1
X197 gnd.t137 gnd.t135 gnd.t136 gnd.t85 sky130_fd_pr__nfet_01v8 ad=2.73 pd=14.78 as=0 ps=0 w=7 l=1
X198 gnd.t309 commonsourceibias.t98 CSoutput.t61 gnd.t254 sky130_fd_pr__nfet_01v8 ad=1.155 pd=7.33 as=1.155 ps=7.33 w=7 l=1
X199 diffpairibias.t11 diffpairibias.t10 gnd.t78 gnd.t77 sky130_fd_pr__nfet_01v8 ad=2.73 pd=14.78 as=2.73 ps=14.78 w=7 l=1
X200 a_n1808_13878.t5 a_n1986_13878.t51 vdd.t106 vdd.t105 sky130_fd_pr__pfet_01v8 ad=1.485 pd=9.33 as=1.485 ps=9.33 w=9 l=0.5
X201 vdd.t63 vdd.t61 vdd.t62 vdd.t37 sky130_fd_pr__pfet_01v8 ad=3.12 pd=16.78 as=0 ps=0 w=8 l=0.5
X202 vdd.t6 a_n1986_13878.t52 a_n1808_13878.t4 vdd.t5 sky130_fd_pr__pfet_01v8 ad=1.485 pd=9.33 as=1.485 ps=9.33 w=9 l=0.5
X203 vdd.t60 vdd.t58 vdd.t59 vdd.t45 sky130_fd_pr__pfet_01v8 ad=3.12 pd=16.78 as=0 ps=0 w=8 l=0.5
X204 CSoutput.t158 a_n7636_8799.t85 vdd.t232 vdd.t231 sky130_fd_pr__pfet_01v8 ad=1.32 pd=8.33 as=1.32 ps=8.33 w=8 l=0.5
X205 gnd.t308 commonsourceibias.t99 CSoutput.t60 gnd.t274 sky130_fd_pr__nfet_01v8 ad=1.155 pd=7.33 as=1.155 ps=7.33 w=7 l=1
X206 CSoutput.t59 commonsourceibias.t100 gnd.t307 gnd.t221 sky130_fd_pr__nfet_01v8 ad=1.155 pd=7.33 as=2.73 ps=14.78 w=7 l=1
X207 vdd.t230 a_n7636_8799.t86 CSoutput.t157 vdd.t229 sky130_fd_pr__pfet_01v8 ad=1.32 pd=8.33 as=1.32 ps=8.33 w=8 l=0.5
X208 gnd.t134 gnd.t131 gnd.t133 gnd.t132 sky130_fd_pr__nfet_01v8 ad=2.73 pd=14.78 as=0 ps=0 w=7 l=0.7
X209 gnd.t130 gnd.t128 plus.t2 gnd.t129 sky130_fd_pr__nfet_01v8 ad=0.165 pd=1.33 as=0.165 ps=1.33 w=1 l=0.5
X210 output.t12 CSoutput.t225 vdd.t23 gnd.t27 sky130_fd_pr__nfet_01v8 ad=0.825 pd=5.33 as=0.825 ps=5.33 w=5 l=1
X211 vdd.t57 vdd.t55 vdd.t56 vdd.t45 sky130_fd_pr__pfet_01v8 ad=3.12 pd=16.78 as=0 ps=0 w=8 l=0.5
X212 diffpairibias.t9 diffpairibias.t8 gnd.t14 gnd.t13 sky130_fd_pr__nfet_01v8 ad=2.73 pd=14.78 as=2.73 ps=14.78 w=7 l=1
X213 gnd.t306 commonsourceibias.t101 CSoutput.t58 gnd.t205 sky130_fd_pr__nfet_01v8 ad=1.155 pd=7.33 as=1.155 ps=7.33 w=7 l=1
X214 a_n3827_n3924.t0 minus.t13 a_n1986_13878.t0 gnd.t1 sky130_fd_pr__nfet_01v8 ad=1.155 pd=7.33 as=1.155 ps=7.33 w=7 l=0.7
X215 CSoutput.t156 a_n7636_8799.t87 vdd.t228 vdd.t227 sky130_fd_pr__pfet_01v8 ad=1.32 pd=8.33 as=1.32 ps=8.33 w=8 l=0.5
X216 vdd.t226 a_n7636_8799.t88 CSoutput.t155 vdd.t142 sky130_fd_pr__pfet_01v8 ad=3.12 pd=16.78 as=1.32 ps=8.33 w=8 l=0.5
X217 vdd.t225 a_n7636_8799.t89 CSoutput.t154 vdd.t181 sky130_fd_pr__pfet_01v8 ad=1.32 pd=8.33 as=1.32 ps=8.33 w=8 l=0.5
X218 commonsourceibias.t37 commonsourceibias.t36 gnd.t305 gnd.t294 sky130_fd_pr__nfet_01v8 ad=1.155 pd=7.33 as=1.155 ps=7.33 w=7 l=1
X219 a_n1986_8322.t14 a_n1986_13878.t53 a_n7636_8799.t0 vdd.t2 sky130_fd_pr__pfet_01v8 ad=1.485 pd=9.33 as=1.485 ps=9.33 w=9 l=0.5
X220 CSoutput.t153 a_n7636_8799.t90 vdd.t224 vdd.t183 sky130_fd_pr__pfet_01v8 ad=1.32 pd=8.33 as=1.32 ps=8.33 w=8 l=0.5
X221 outputibias.t1 outputibias.t0 gnd.t47 gnd.t46 sky130_fd_pr__nfet_01v8 ad=2.34 pd=12.78 as=2.34 ps=12.78 w=6 l=2
X222 diffpairibias.t7 diffpairibias.t6 gnd.t3 gnd.t2 sky130_fd_pr__nfet_01v8 ad=2.73 pd=14.78 as=2.73 ps=14.78 w=7 l=1
X223 vdd.t223 a_n7636_8799.t91 CSoutput.t152 vdd.t222 sky130_fd_pr__pfet_01v8 ad=1.32 pd=8.33 as=1.32 ps=8.33 w=8 l=0.5
X224 a_n1986_13878.t6 minus.t14 a_n3827_n3924.t24 gnd.t37 sky130_fd_pr__nfet_01v8 ad=1.155 pd=7.33 as=1.155 ps=7.33 w=7 l=0.7
X225 CSoutput.t151 a_n7636_8799.t92 vdd.t221 vdd.t138 sky130_fd_pr__pfet_01v8 ad=1.32 pd=8.33 as=1.32 ps=8.33 w=8 l=0.5
X226 a_n1986_13878.t35 minus.t15 a_n3827_n3924.t29 gnd.t0 sky130_fd_pr__nfet_01v8 ad=1.155 pd=7.33 as=1.155 ps=7.33 w=7 l=0.7
X227 vdd.t220 a_n7636_8799.t93 CSoutput.t150 vdd.t219 sky130_fd_pr__pfet_01v8 ad=1.32 pd=8.33 as=1.32 ps=8.33 w=8 l=0.5
X228 vdd.t128 a_n1986_13878.t54 a_n1986_8322.t3 vdd.t127 sky130_fd_pr__pfet_01v8 ad=1.485 pd=9.33 as=3.51 ps=18.78 w=9 l=0.5
X229 vdd.t218 a_n7636_8799.t94 CSoutput.t149 vdd.t186 sky130_fd_pr__pfet_01v8 ad=1.32 pd=8.33 as=1.32 ps=8.33 w=8 l=0.5
X230 vdd.t217 a_n7636_8799.t95 CSoutput.t148 vdd.t216 sky130_fd_pr__pfet_01v8 ad=1.32 pd=8.33 as=1.32 ps=8.33 w=8 l=0.5
X231 output.t1 outputibias.t10 gnd.t50 gnd.t49 sky130_fd_pr__nfet_01v8 ad=2.34 pd=12.78 as=2.34 ps=12.78 w=6 l=2
X232 CSoutput.t57 commonsourceibias.t102 gnd.t304 gnd.t217 sky130_fd_pr__nfet_01v8 ad=1.155 pd=7.33 as=1.155 ps=7.33 w=7 l=1
X233 CSoutput.t226 a_n1986_8322.t20 sky130_fd_pr__cap_mim_m3_1 l=12 w=12
X234 a_n7636_8799.t8 plus.t13 a_n3827_n3924.t7 gnd.t32 sky130_fd_pr__nfet_01v8 ad=1.155 pd=7.33 as=1.155 ps=7.33 w=7 l=0.7
X235 commonsourceibias.t35 commonsourceibias.t34 gnd.t303 gnd.t266 sky130_fd_pr__nfet_01v8 ad=1.155 pd=7.33 as=1.155 ps=7.33 w=7 l=1
X236 a_n3827_n3924.t1 minus.t16 a_n1986_13878.t1 gnd.t6 sky130_fd_pr__nfet_01v8 ad=1.155 pd=7.33 as=1.155 ps=7.33 w=7 l=0.7
X237 gnd.t127 gnd.t124 gnd.t126 gnd.t125 sky130_fd_pr__nfet_01v8 ad=2.73 pd=14.78 as=0 ps=0 w=7 l=1
X238 a_n1808_13878.t3 a_n1986_13878.t55 vdd.t108 vdd.t107 sky130_fd_pr__pfet_01v8 ad=3.51 pd=18.78 as=1.485 ps=9.33 w=9 l=0.5
X239 vdd.t24 CSoutput.t227 output.t11 gnd.t28 sky130_fd_pr__nfet_01v8 ad=0.825 pd=5.33 as=0.825 ps=5.33 w=5 l=1
X240 CSoutput.t56 commonsourceibias.t103 gnd.t302 gnd.t217 sky130_fd_pr__nfet_01v8 ad=1.155 pd=7.33 as=1.155 ps=7.33 w=7 l=1
X241 vdd.t215 a_n7636_8799.t96 CSoutput.t147 vdd.t199 sky130_fd_pr__pfet_01v8 ad=1.32 pd=8.33 as=1.32 ps=8.33 w=8 l=0.5
X242 gnd.t301 commonsourceibias.t104 CSoutput.t55 gnd.t281 sky130_fd_pr__nfet_01v8 ad=1.155 pd=7.33 as=1.155 ps=7.33 w=7 l=1
X243 CSoutput.t228 a_n1986_8322.t21 sky130_fd_pr__cap_mim_m3_1 l=12 w=12
X244 CSoutput.t146 a_n7636_8799.t97 vdd.t214 vdd.t211 sky130_fd_pr__pfet_01v8 ad=1.32 pd=8.33 as=1.32 ps=8.33 w=8 l=0.5
X245 CSoutput.t145 a_n7636_8799.t98 vdd.t213 vdd.t197 sky130_fd_pr__pfet_01v8 ad=1.32 pd=8.33 as=1.32 ps=8.33 w=8 l=0.5
X246 gnd.t300 commonsourceibias.t32 commonsourceibias.t33 gnd.t230 sky130_fd_pr__nfet_01v8 ad=2.73 pd=14.78 as=1.155 ps=7.33 w=7 l=1
X247 gnd.t299 commonsourceibias.t105 CSoutput.t54 gnd.t243 sky130_fd_pr__nfet_01v8 ad=1.155 pd=7.33 as=1.155 ps=7.33 w=7 l=1
X248 CSoutput.t53 commonsourceibias.t106 gnd.t298 gnd.t228 sky130_fd_pr__nfet_01v8 ad=1.155 pd=7.33 as=1.155 ps=7.33 w=7 l=1
X249 gnd.t123 gnd.t120 gnd.t122 gnd.t121 sky130_fd_pr__nfet_01v8 ad=2.73 pd=14.78 as=0 ps=0 w=7 l=1
X250 CSoutput.t52 commonsourceibias.t107 gnd.t297 gnd.t279 sky130_fd_pr__nfet_01v8 ad=1.155 pd=7.33 as=1.155 ps=7.33 w=7 l=1