* NGSPICE file created from opamp.ext - technology: sky130A

.subckt opamp output vdd plus minus commonsourceibias outputibias diffpairibias gnd CSoutput
Cload output gnd 0.0p
X0 gnd.t216 gnd.t213 gnd.t215 gnd.t214 sky130_fd_pr__nfet_01v8 ad=2.34 pd=12.78 as=0 ps=0 w=6 l=2
X1 commonsourceibias.t47 commonsourceibias.t46 gnd.t254 gnd.t228 sky130_fd_pr__nfet_01v8 ad=1.155 pd=7.33 as=2.73 ps=14.78 w=7 l=1
X2 gnd.t277 commonsourceibias.t48 CSoutput.t63 gnd.t28 sky130_fd_pr__nfet_01v8 ad=1.155 pd=7.33 as=1.155 ps=7.33 w=7 l=1
X3 gnd.t212 gnd.t210 gnd.t211 gnd.t195 sky130_fd_pr__nfet_01v8 ad=2.73 pd=14.78 as=0 ps=0 w=7 l=1
X4 vdd.t244 a_n7636_8799.t28 CSoutput.t117 vdd.t115 sky130_fd_pr__pfet_01v8_lvt ad=1.32 pd=8.33 as=1.32 ps=8.33 w=8 l=0.5
X5 a_n1986_8322.t7 a_n1986_13878.t40 vdd.t269 vdd.t268 sky130_fd_pr__pfet_01v8_lvt ad=1.485 pd=9.33 as=1.485 ps=9.33 w=9 l=0.5
X6 a_n1808_13878.t19 a_n1986_13878.t4 a_n1986_13878.t5 vdd.t285 sky130_fd_pr__pfet_01v8_lvt ad=1.485 pd=9.33 as=3.51 ps=18.78 w=9 l=0.5
X7 output.t19 outputibias.t8 gnd.t281 gnd.t280 sky130_fd_pr__nfet_01v8 ad=2.34 pd=12.78 as=2.34 ps=12.78 w=6 l=2
X8 gnd.t260 commonsourceibias.t49 CSoutput.t62 gnd.t4 sky130_fd_pr__nfet_01v8 ad=1.155 pd=7.33 as=1.155 ps=7.33 w=7 l=1
X9 vdd.t248 CSoutput.t168 output.t15 gnd.t85 sky130_fd_pr__nfet_01v8_lvt ad=0.825 pd=5.33 as=1.95 ps=10.78 w=5 l=1
X10 a_n1986_13878.t27 a_n1986_13878.t26 a_n1808_13878.t18 vdd.t6 sky130_fd_pr__pfet_01v8_lvt ad=1.485 pd=9.33 as=1.485 ps=9.33 w=9 l=0.5
X11 a_n1808_13878.t17 a_n1986_13878.t20 a_n1986_13878.t21 vdd.t3 sky130_fd_pr__pfet_01v8_lvt ad=1.485 pd=9.33 as=1.485 ps=9.33 w=9 l=0.5
X12 vdd.t83 vdd.t81 vdd.t82 vdd.t59 sky130_fd_pr__pfet_01v8_lvt ad=3.51 pd=18.78 as=0 ps=0 w=9 l=0.5
X13 CSoutput.t101 a_n7636_8799.t29 vdd.t243 vdd.t183 sky130_fd_pr__pfet_01v8_lvt ad=1.32 pd=8.33 as=1.32 ps=8.33 w=8 l=0.5
X14 a_n1808_13878.t7 a_n1986_13878.t41 vdd.t291 vdd.t290 sky130_fd_pr__pfet_01v8_lvt ad=1.485 pd=9.33 as=1.485 ps=9.33 w=9 l=0.5
X15 gnd.t88 commonsourceibias.t44 commonsourceibias.t45 gnd.t83 sky130_fd_pr__nfet_01v8 ad=1.155 pd=7.33 as=1.155 ps=7.33 w=7 l=1
X16 vdd.t260 CSoutput.t169 output.t14 gnd.t86 sky130_fd_pr__nfet_01v8_lvt ad=0.825 pd=5.33 as=0.825 ps=5.33 w=5 l=1
X17 CSoutput.t7 a_n7636_8799.t30 vdd.t242 vdd.t95 sky130_fd_pr__pfet_01v8_lvt ad=1.32 pd=8.33 as=1.32 ps=8.33 w=8 l=0.5
X18 vdd.t241 a_n7636_8799.t31 CSoutput.t71 vdd.t177 sky130_fd_pr__pfet_01v8_lvt ad=1.32 pd=8.33 as=1.32 ps=8.33 w=8 l=0.5
X19 gnd.t89 commonsourceibias.t50 CSoutput.t61 gnd.t83 sky130_fd_pr__nfet_01v8 ad=1.155 pd=7.33 as=1.155 ps=7.33 w=7 l=1
X20 outputibias.t7 outputibias.t6 gnd.t225 gnd.t224 sky130_fd_pr__nfet_01v8 ad=2.34 pd=12.78 as=2.34 ps=12.78 w=6 l=2
X21 CSoutput.t124 a_n7636_8799.t32 vdd.t240 vdd.t99 sky130_fd_pr__pfet_01v8_lvt ad=1.32 pd=8.33 as=1.32 ps=8.33 w=8 l=0.5
X22 a_n7636_8799.t27 plus.t5 a_n2903_n3924.t34 gnd.t32 sky130_fd_pr__nfet_01v8 ad=1.155 pd=7.33 as=1.155 ps=7.33 w=7 l=0.5
X23 vdd.t80 vdd.t78 vdd.t79 vdd.t31 sky130_fd_pr__pfet_01v8_lvt ad=3.12 pd=16.78 as=0 ps=0 w=8 l=0.5
X24 a_n1986_8322.t19 a_n1986_13878.t42 a_n7636_8799.t19 vdd.t277 sky130_fd_pr__pfet_01v8_lvt ad=1.485 pd=9.33 as=1.485 ps=9.33 w=9 l=0.5
X25 gnd.t87 commonsourceibias.t42 commonsourceibias.t43 gnd.t53 sky130_fd_pr__nfet_01v8 ad=1.155 pd=7.33 as=1.155 ps=7.33 w=7 l=1
X26 CSoutput.t74 a_n7636_8799.t33 vdd.t239 vdd.t141 sky130_fd_pr__pfet_01v8_lvt ad=1.32 pd=8.33 as=1.32 ps=8.33 w=8 l=0.5
X27 vdd.t238 a_n7636_8799.t34 CSoutput.t79 vdd.t170 sky130_fd_pr__pfet_01v8_lvt ad=1.32 pd=8.33 as=1.32 ps=8.33 w=8 l=0.5
X28 a_n7636_8799.t12 plus.t6 a_n2903_n3924.t33 gnd.t26 sky130_fd_pr__nfet_01v8 ad=1.155 pd=7.33 as=1.155 ps=7.33 w=7 l=0.5
X29 CSoutput.t60 commonsourceibias.t51 gnd.t7 gnd.t6 sky130_fd_pr__nfet_01v8 ad=1.155 pd=7.33 as=1.155 ps=7.33 w=7 l=1
X30 CSoutput.t170 a_n1986_8322.t20 sky130_fd_pr__cap_mim_m3_1 l=12 w=12
X31 gnd.t15 commonsourceibias.t40 commonsourceibias.t41 gnd.t14 sky130_fd_pr__nfet_01v8 ad=1.155 pd=7.33 as=1.155 ps=7.33 w=7 l=1
X32 vdd.t237 a_n7636_8799.t35 CSoutput.t139 vdd.t193 sky130_fd_pr__pfet_01v8_lvt ad=1.32 pd=8.33 as=1.32 ps=8.33 w=8 l=0.5
X33 CSoutput.t0 a_n7636_8799.t36 vdd.t236 vdd.t143 sky130_fd_pr__pfet_01v8_lvt ad=1.32 pd=8.33 as=1.32 ps=8.33 w=8 l=0.5
X34 vdd.t235 a_n7636_8799.t37 CSoutput.t84 vdd.t197 sky130_fd_pr__pfet_01v8_lvt ad=1.32 pd=8.33 as=1.32 ps=8.33 w=8 l=0.5
X35 a_n7636_8799.t21 a_n1986_13878.t43 a_n1986_8322.t18 vdd.t285 sky130_fd_pr__pfet_01v8_lvt ad=1.485 pd=9.33 as=3.51 ps=18.78 w=9 l=0.5
X36 CSoutput.t103 a_n7636_8799.t38 vdd.t234 vdd.t85 sky130_fd_pr__pfet_01v8_lvt ad=1.32 pd=8.33 as=3.12 ps=16.78 w=8 l=0.5
X37 vdd.t233 a_n7636_8799.t39 CSoutput.t76 vdd.t222 sky130_fd_pr__pfet_01v8_lvt ad=1.32 pd=8.33 as=1.32 ps=8.33 w=8 l=0.5
X38 gnd.t209 gnd.t207 plus.t4 gnd.t208 sky130_fd_pr__nfet_01v8 ad=0.165 pd=1.33 as=0.39 ps=2.78 w=1 l=0.5
X39 a_n2903_n3924.t39 minus.t5 a_n1986_13878.t39 gnd.t34 sky130_fd_pr__nfet_01v8 ad=1.155 pd=7.33 as=1.155 ps=7.33 w=7 l=0.5
X40 CSoutput.t59 commonsourceibias.t52 gnd.t282 gnd.t59 sky130_fd_pr__nfet_01v8 ad=1.155 pd=7.33 as=1.155 ps=7.33 w=7 l=1
X41 a_n2903_n3924.t8 diffpairibias.t16 gnd.t95 gnd.t94 sky130_fd_pr__nfet_01v8 ad=2.73 pd=14.78 as=2.73 ps=14.78 w=7 l=1
X42 a_n1986_13878.t2 minus.t6 a_n2903_n3924.t2 gnd.t27 sky130_fd_pr__nfet_01v8 ad=1.155 pd=7.33 as=2.73 ps=14.78 w=7 l=0.5
X43 a_n2903_n3924.t32 plus.t7 a_n7636_8799.t13 gnd.t104 sky130_fd_pr__nfet_01v8 ad=2.73 pd=14.78 as=1.155 ps=7.33 w=7 l=0.5
X44 output.t13 CSoutput.t171 vdd.t246 gnd.t261 sky130_fd_pr__nfet_01v8_lvt ad=0.825 pd=5.33 as=0.825 ps=5.33 w=5 l=1
X45 vdd.t254 CSoutput.t172 output.t12 gnd.t262 sky130_fd_pr__nfet_01v8_lvt ad=0.825 pd=5.33 as=0.825 ps=5.33 w=5 l=1
X46 CSoutput.t58 commonsourceibias.t53 gnd.t253 gnd.t92 sky130_fd_pr__nfet_01v8 ad=1.155 pd=7.33 as=1.155 ps=7.33 w=7 l=1
X47 a_n2903_n3924.t37 minus.t7 a_n1986_13878.t37 gnd.t109 sky130_fd_pr__nfet_01v8 ad=1.155 pd=7.33 as=1.155 ps=7.33 w=7 l=0.5
X48 CSoutput.t163 a_n7636_8799.t40 vdd.t232 vdd.t133 sky130_fd_pr__pfet_01v8_lvt ad=1.32 pd=8.33 as=1.32 ps=8.33 w=8 l=0.5
X49 CSoutput.t110 a_n7636_8799.t41 vdd.t231 vdd.t183 sky130_fd_pr__pfet_01v8_lvt ad=1.32 pd=8.33 as=1.32 ps=8.33 w=8 l=0.5
X50 vdd.t77 vdd.t75 vdd.t76 vdd.t9 sky130_fd_pr__pfet_01v8_lvt ad=3.12 pd=16.78 as=0 ps=0 w=8 l=0.5
X51 CSoutput.t57 commonsourceibias.t54 gnd.t234 gnd.t228 sky130_fd_pr__nfet_01v8 ad=1.155 pd=7.33 as=2.73 ps=14.78 w=7 l=1
X52 CSoutput.t164 a_n7636_8799.t42 vdd.t230 vdd.t99 sky130_fd_pr__pfet_01v8_lvt ad=1.32 pd=8.33 as=1.32 ps=8.33 w=8 l=0.5
X53 a_n2903_n3924.t38 minus.t8 a_n1986_13878.t38 gnd.t75 sky130_fd_pr__nfet_01v8 ad=1.155 pd=7.33 as=1.155 ps=7.33 w=7 l=0.5
X54 a_n1808_13878.t16 a_n1986_13878.t8 a_n1986_13878.t9 vdd.t270 sky130_fd_pr__pfet_01v8_lvt ad=1.485 pd=9.33 as=3.51 ps=18.78 w=9 l=0.5
X55 vdd.t74 vdd.t72 vdd.t73 vdd.t31 sky130_fd_pr__pfet_01v8_lvt ad=3.12 pd=16.78 as=0 ps=0 w=8 l=0.5
X56 vdd.t229 a_n7636_8799.t43 CSoutput.t144 vdd.t222 sky130_fd_pr__pfet_01v8_lvt ad=1.32 pd=8.33 as=1.32 ps=8.33 w=8 l=0.5
X57 diffpairibias.t15 diffpairibias.t14 gnd.t279 gnd.t278 sky130_fd_pr__nfet_01v8 ad=2.73 pd=14.78 as=2.73 ps=14.78 w=7 l=1
X58 a_n1986_13878.t15 a_n1986_13878.t14 a_n1808_13878.t15 vdd.t266 sky130_fd_pr__pfet_01v8_lvt ad=1.485 pd=9.33 as=1.485 ps=9.33 w=9 l=0.5
X59 CSoutput.t90 a_n7636_8799.t44 vdd.t228 vdd.t175 sky130_fd_pr__pfet_01v8_lvt ad=1.32 pd=8.33 as=1.32 ps=8.33 w=8 l=0.5
X60 gnd.t206 gnd.t204 gnd.t205 gnd.t195 sky130_fd_pr__nfet_01v8 ad=2.73 pd=14.78 as=0 ps=0 w=7 l=1
X61 vdd.t71 vdd.t69 vdd.t70 vdd.t44 sky130_fd_pr__pfet_01v8_lvt ad=3.51 pd=18.78 as=0 ps=0 w=9 l=0.5
X62 CSoutput.t151 a_n7636_8799.t45 vdd.t227 vdd.t141 sky130_fd_pr__pfet_01v8_lvt ad=1.32 pd=8.33 as=1.32 ps=8.33 w=8 l=0.5
X63 gnd.t203 gnd.t201 plus.t3 gnd.t202 sky130_fd_pr__nfet_01v8 ad=0.39 pd=2.78 as=0.165 ps=1.33 w=1 l=0.5
X64 vdd.t226 a_n7636_8799.t46 CSoutput.t152 vdd.t170 sky130_fd_pr__pfet_01v8_lvt ad=1.32 pd=8.33 as=1.32 ps=8.33 w=8 l=0.5
X65 minus.t4 gnd.t198 gnd.t200 gnd.t199 sky130_fd_pr__nfet_01v8 ad=0.165 pd=1.33 as=0.165 ps=1.33 w=1 l=0.5
X66 gnd.t5 commonsourceibias.t55 CSoutput.t56 gnd.t4 sky130_fd_pr__nfet_01v8 ad=1.155 pd=7.33 as=1.155 ps=7.33 w=7 l=1
X67 gnd.t36 commonsourceibias.t56 CSoutput.t55 gnd.t35 sky130_fd_pr__nfet_01v8 ad=1.155 pd=7.33 as=1.155 ps=7.33 w=7 l=1
X68 diffpairibias.t13 diffpairibias.t12 gnd.t19 gnd.t18 sky130_fd_pr__nfet_01v8 ad=2.73 pd=14.78 as=2.73 ps=14.78 w=7 l=1
X69 CSoutput.t148 a_n7636_8799.t47 vdd.t225 vdd.t179 sky130_fd_pr__pfet_01v8_lvt ad=1.32 pd=8.33 as=1.32 ps=8.33 w=8 l=0.5
X70 gnd.t37 commonsourceibias.t57 CSoutput.t54 gnd.t14 sky130_fd_pr__nfet_01v8 ad=1.155 pd=7.33 as=1.155 ps=7.33 w=7 l=1
X71 commonsourceibias.t39 commonsourceibias.t38 gnd.t82 gnd.t6 sky130_fd_pr__nfet_01v8 ad=1.155 pd=7.33 as=1.155 ps=7.33 w=7 l=1
X72 vdd.t224 a_n7636_8799.t48 CSoutput.t128 vdd.t193 sky130_fd_pr__pfet_01v8_lvt ad=1.32 pd=8.33 as=1.32 ps=8.33 w=8 l=0.5
X73 vdd.t223 a_n7636_8799.t49 CSoutput.t70 vdd.t222 sky130_fd_pr__pfet_01v8_lvt ad=1.32 pd=8.33 as=1.32 ps=8.33 w=8 l=0.5
X74 vdd.t221 a_n7636_8799.t50 CSoutput.t155 vdd.t107 sky130_fd_pr__pfet_01v8_lvt ad=1.32 pd=8.33 as=1.32 ps=8.33 w=8 l=0.5
X75 vdd.t249 CSoutput.t173 output.t11 gnd.t8 sky130_fd_pr__nfet_01v8_lvt ad=0.825 pd=5.33 as=0.825 ps=5.33 w=5 l=1
X76 CSoutput.t104 a_n7636_8799.t51 vdd.t220 vdd.t113 sky130_fd_pr__pfet_01v8_lvt ad=1.32 pd=8.33 as=1.32 ps=8.33 w=8 l=0.5
X77 vdd.t219 a_n7636_8799.t52 CSoutput.t114 vdd.t168 sky130_fd_pr__pfet_01v8_lvt ad=1.32 pd=8.33 as=1.32 ps=8.33 w=8 l=0.5
X78 CSoutput.t149 a_n7636_8799.t53 vdd.t218 vdd.t85 sky130_fd_pr__pfet_01v8_lvt ad=1.32 pd=8.33 as=3.12 ps=16.78 w=8 l=0.5
X79 vdd.t217 a_n7636_8799.t54 CSoutput.t80 vdd.t93 sky130_fd_pr__pfet_01v8_lvt ad=1.32 pd=8.33 as=1.32 ps=8.33 w=8 l=0.5
X80 gnd.t72 commonsourceibias.t58 CSoutput.t53 gnd.t23 sky130_fd_pr__nfet_01v8 ad=1.155 pd=7.33 as=1.155 ps=7.33 w=7 l=1
X81 a_n7636_8799.t25 plus.t8 a_n2903_n3924.t31 gnd.t245 sky130_fd_pr__nfet_01v8 ad=1.155 pd=7.33 as=1.155 ps=7.33 w=7 l=0.5
X82 commonsourceibias.t37 commonsourceibias.t36 gnd.t81 gnd.t46 sky130_fd_pr__nfet_01v8 ad=1.155 pd=7.33 as=1.155 ps=7.33 w=7 l=1
X83 CSoutput.t130 a_n7636_8799.t55 vdd.t216 vdd.t151 sky130_fd_pr__pfet_01v8_lvt ad=1.32 pd=8.33 as=3.12 ps=16.78 w=8 l=0.5
X84 CSoutput.t1 a_n7636_8799.t56 vdd.t215 vdd.t133 sky130_fd_pr__pfet_01v8_lvt ad=1.32 pd=8.33 as=1.32 ps=8.33 w=8 l=0.5
X85 CSoutput.t123 a_n7636_8799.t57 vdd.t214 vdd.t201 sky130_fd_pr__pfet_01v8_lvt ad=1.32 pd=8.33 as=1.32 ps=8.33 w=8 l=0.5
X86 a_n2903_n3924.t9 diffpairibias.t17 gnd.t97 gnd.t96 sky130_fd_pr__nfet_01v8 ad=2.73 pd=14.78 as=2.73 ps=14.78 w=7 l=1
X87 gnd.t24 commonsourceibias.t34 commonsourceibias.t35 gnd.t23 sky130_fd_pr__nfet_01v8 ad=1.155 pd=7.33 as=1.155 ps=7.33 w=7 l=1
X88 CSoutput.t118 a_n7636_8799.t58 vdd.t213 vdd.t201 sky130_fd_pr__pfet_01v8_lvt ad=1.32 pd=8.33 as=1.32 ps=8.33 w=8 l=0.5
X89 a_n2903_n3924.t0 minus.t9 a_n1986_13878.t0 gnd.t20 sky130_fd_pr__nfet_01v8 ad=1.155 pd=7.33 as=1.155 ps=7.33 w=7 l=0.5
X90 vdd.t212 a_n7636_8799.t59 CSoutput.t98 vdd.t199 sky130_fd_pr__pfet_01v8_lvt ad=1.32 pd=8.33 as=1.32 ps=8.33 w=8 l=0.5
X91 a_n2903_n3924.t30 plus.t9 a_n7636_8799.t20 gnd.t45 sky130_fd_pr__nfet_01v8 ad=1.155 pd=7.33 as=1.155 ps=7.33 w=7 l=0.5
X92 a_n1986_13878.t34 minus.t10 a_n2903_n3924.t17 gnd.t33 sky130_fd_pr__nfet_01v8 ad=1.155 pd=7.33 as=1.155 ps=7.33 w=7 l=0.5
X93 gnd.t252 commonsourceibias.t32 commonsourceibias.t33 gnd.t21 sky130_fd_pr__nfet_01v8 ad=2.73 pd=14.78 as=1.155 ps=7.33 w=7 l=1
X94 commonsourceibias.t31 commonsourceibias.t30 gnd.t93 gnd.t92 sky130_fd_pr__nfet_01v8 ad=1.155 pd=7.33 as=1.155 ps=7.33 w=7 l=1
X95 vdd.t211 a_n7636_8799.t60 CSoutput.t94 vdd.t165 sky130_fd_pr__pfet_01v8_lvt ad=1.32 pd=8.33 as=1.32 ps=8.33 w=8 l=0.5
X96 a_n1986_13878.t25 a_n1986_13878.t24 a_n1808_13878.t14 vdd.t277 sky130_fd_pr__pfet_01v8_lvt ad=1.485 pd=9.33 as=1.485 ps=9.33 w=9 l=0.5
X97 outputibias.t5 outputibias.t4 gnd.t218 gnd.t217 sky130_fd_pr__nfet_01v8 ad=2.34 pd=12.78 as=2.34 ps=12.78 w=6 l=2
X98 a_n1986_13878.t17 a_n1986_13878.t16 a_n1808_13878.t13 vdd.t278 sky130_fd_pr__pfet_01v8_lvt ad=3.51 pd=18.78 as=1.485 ps=9.33 w=9 l=0.5
X99 vdd.t210 a_n7636_8799.t61 CSoutput.t162 vdd.t197 sky130_fd_pr__pfet_01v8_lvt ad=1.32 pd=8.33 as=1.32 ps=8.33 w=8 l=0.5
X100 vdd.t209 a_n7636_8799.t62 CSoutput.t8 vdd.t145 sky130_fd_pr__pfet_01v8_lvt ad=1.32 pd=8.33 as=1.32 ps=8.33 w=8 l=0.5
X101 a_n7636_8799.t2 a_n1986_13878.t44 a_n1986_8322.t17 vdd.t84 sky130_fd_pr__pfet_01v8_lvt ad=1.485 pd=9.33 as=1.485 ps=9.33 w=9 l=0.5
X102 CSoutput.t52 commonsourceibias.t59 gnd.t108 gnd.t59 sky130_fd_pr__nfet_01v8 ad=1.155 pd=7.33 as=1.155 ps=7.33 w=7 l=1
X103 vdd.t208 a_n7636_8799.t63 CSoutput.t166 vdd.t199 sky130_fd_pr__pfet_01v8_lvt ad=1.32 pd=8.33 as=1.32 ps=8.33 w=8 l=0.5
X104 a_n2903_n3924.t12 minus.t11 a_n1986_13878.t30 gnd.t38 sky130_fd_pr__nfet_01v8 ad=2.73 pd=14.78 as=1.155 ps=7.33 w=7 l=0.5
X105 CSoutput.t51 commonsourceibias.t60 gnd.t17 gnd.t16 sky130_fd_pr__nfet_01v8 ad=1.155 pd=7.33 as=1.155 ps=7.33 w=7 l=1
X106 vdd.t207 a_n7636_8799.t64 CSoutput.t115 vdd.t111 sky130_fd_pr__pfet_01v8_lvt ad=1.32 pd=8.33 as=1.32 ps=8.33 w=8 l=0.5
X107 gnd.t22 commonsourceibias.t61 CSoutput.t50 gnd.t21 sky130_fd_pr__nfet_01v8 ad=2.73 pd=14.78 as=1.155 ps=7.33 w=7 l=1
X108 gnd.t197 gnd.t194 gnd.t196 gnd.t195 sky130_fd_pr__nfet_01v8 ad=2.73 pd=14.78 as=0 ps=0 w=7 l=1
X109 commonsourceibias.t29 commonsourceibias.t28 gnd.t31 gnd.t30 sky130_fd_pr__nfet_01v8 ad=1.155 pd=7.33 as=1.155 ps=7.33 w=7 l=1
X110 CSoutput.t126 a_n7636_8799.t65 vdd.t206 vdd.t147 sky130_fd_pr__pfet_01v8_lvt ad=1.32 pd=8.33 as=1.32 ps=8.33 w=8 l=0.5
X111 CSoutput.t49 commonsourceibias.t62 gnd.t229 gnd.t228 sky130_fd_pr__nfet_01v8 ad=1.155 pd=7.33 as=2.73 ps=14.78 w=7 l=1
X112 CSoutput.t174 a_n1986_8322.t21 sky130_fd_pr__cap_mim_m3_1 l=12 w=12
X113 outputibias.t3 outputibias.t2 gnd.t275 gnd.t274 sky130_fd_pr__nfet_01v8 ad=2.34 pd=12.78 as=2.34 ps=12.78 w=6 l=2
X114 vdd.t205 a_n7636_8799.t66 CSoutput.t145 vdd.t168 sky130_fd_pr__pfet_01v8_lvt ad=1.32 pd=8.33 as=1.32 ps=8.33 w=8 l=0.5
X115 vdd.t68 vdd.t66 vdd.t67 vdd.t52 sky130_fd_pr__pfet_01v8_lvt ad=3.51 pd=18.78 as=0 ps=0 w=9 l=0.5
X116 CSoutput.t105 a_n7636_8799.t67 vdd.t204 vdd.t113 sky130_fd_pr__pfet_01v8_lvt ad=1.32 pd=8.33 as=1.32 ps=8.33 w=8 l=0.5
X117 vdd.t65 vdd.t62 vdd.t64 vdd.t63 sky130_fd_pr__pfet_01v8_lvt ad=3.51 pd=18.78 as=0 ps=0 w=9 l=0.5
X118 a_n1986_13878.t29 minus.t12 a_n2903_n3924.t11 gnd.t220 sky130_fd_pr__nfet_01v8 ad=1.155 pd=7.33 as=1.155 ps=7.33 w=7 l=0.5
X119 a_n2903_n3924.t10 diffpairibias.t18 gnd.t107 gnd.t106 sky130_fd_pr__nfet_01v8 ad=2.73 pd=14.78 as=2.73 ps=14.78 w=7 l=1
X120 vdd.t61 vdd.t58 vdd.t60 vdd.t59 sky130_fd_pr__pfet_01v8_lvt ad=3.51 pd=18.78 as=0 ps=0 w=9 l=0.5
X121 commonsourceibias.t27 commonsourceibias.t26 gnd.t80 gnd.t16 sky130_fd_pr__nfet_01v8 ad=1.155 pd=7.33 as=1.155 ps=7.33 w=7 l=1
X122 vdd.t295 a_n1986_13878.t45 a_n1986_8322.t6 vdd.t294 sky130_fd_pr__pfet_01v8_lvt ad=1.485 pd=9.33 as=1.485 ps=9.33 w=9 l=0.5
X123 vdd.t57 vdd.t55 vdd.t56 vdd.t48 sky130_fd_pr__pfet_01v8_lvt ad=3.51 pd=18.78 as=0 ps=0 w=9 l=0.5
X124 a_n2903_n3924.t29 plus.t10 a_n7636_8799.t14 gnd.t105 sky130_fd_pr__nfet_01v8 ad=1.155 pd=7.33 as=1.155 ps=7.33 w=7 l=0.5
X125 CSoutput.t119 a_n7636_8799.t68 vdd.t203 vdd.t151 sky130_fd_pr__pfet_01v8_lvt ad=1.32 pd=8.33 as=3.12 ps=16.78 w=8 l=0.5
X126 CSoutput.t133 a_n7636_8799.t69 vdd.t202 vdd.t201 sky130_fd_pr__pfet_01v8_lvt ad=1.32 pd=8.33 as=1.32 ps=8.33 w=8 l=0.5
X127 a_n1986_8322.t5 a_n1986_13878.t46 vdd.t276 vdd.t275 sky130_fd_pr__pfet_01v8_lvt ad=1.485 pd=9.33 as=1.485 ps=9.33 w=9 l=0.5
X128 vdd.t200 a_n7636_8799.t70 CSoutput.t127 vdd.t199 sky130_fd_pr__pfet_01v8_lvt ad=1.32 pd=8.33 as=1.32 ps=8.33 w=8 l=0.5
X129 gnd.t238 commonsourceibias.t24 commonsourceibias.t25 gnd.t4 sky130_fd_pr__nfet_01v8 ad=1.155 pd=7.33 as=1.155 ps=7.33 w=7 l=1
X130 gnd.t269 commonsourceibias.t63 CSoutput.t48 gnd.t35 sky130_fd_pr__nfet_01v8 ad=1.155 pd=7.33 as=1.155 ps=7.33 w=7 l=1
X131 vdd.t289 a_n1986_13878.t47 a_n1808_13878.t6 vdd.t288 sky130_fd_pr__pfet_01v8_lvt ad=1.485 pd=9.33 as=1.485 ps=9.33 w=9 l=0.5
X132 gnd.t49 commonsourceibias.t64 CSoutput.t47 gnd.t14 sky130_fd_pr__nfet_01v8 ad=1.155 pd=7.33 as=1.155 ps=7.33 w=7 l=1
X133 a_n7636_8799.t22 plus.t11 a_n2903_n3924.t28 gnd.t244 sky130_fd_pr__nfet_01v8 ad=1.155 pd=7.33 as=2.73 ps=14.78 w=7 l=0.5
X134 gnd.t219 commonsourceibias.t65 CSoutput.t46 gnd.t101 sky130_fd_pr__nfet_01v8 ad=2.73 pd=14.78 as=1.155 ps=7.33 w=7 l=1
X135 vdd.t54 vdd.t51 vdd.t53 vdd.t52 sky130_fd_pr__pfet_01v8_lvt ad=3.51 pd=18.78 as=0 ps=0 w=9 l=0.5
X136 diffpairibias.t11 diffpairibias.t10 gnd.t78 gnd.t77 sky130_fd_pr__nfet_01v8 ad=2.73 pd=14.78 as=2.73 ps=14.78 w=7 l=1
X137 vdd.t251 CSoutput.t175 output.t10 gnd.t9 sky130_fd_pr__nfet_01v8_lvt ad=0.825 pd=5.33 as=0.825 ps=5.33 w=5 l=1
X138 vdd.t50 vdd.t47 vdd.t49 vdd.t48 sky130_fd_pr__pfet_01v8_lvt ad=3.51 pd=18.78 as=0 ps=0 w=9 l=0.5
X139 vdd.t198 a_n7636_8799.t71 CSoutput.t2 vdd.t197 sky130_fd_pr__pfet_01v8_lvt ad=1.32 pd=8.33 as=1.32 ps=8.33 w=8 l=0.5
X140 gnd.t221 commonsourceibias.t66 CSoutput.t45 gnd.t70 sky130_fd_pr__nfet_01v8 ad=1.155 pd=7.33 as=1.155 ps=7.33 w=7 l=1
X141 outputibias.t1 outputibias.t0 gnd.t227 gnd.t226 sky130_fd_pr__nfet_01v8 ad=2.34 pd=12.78 as=2.34 ps=12.78 w=6 l=2
X142 a_n7636_8799.t5 a_n1986_13878.t48 a_n1986_8322.t16 vdd.t265 sky130_fd_pr__pfet_01v8_lvt ad=1.485 pd=9.33 as=1.485 ps=9.33 w=9 l=0.5
X143 a_n1986_8322.t4 a_n1986_13878.t49 vdd.t293 vdd.t292 sky130_fd_pr__pfet_01v8_lvt ad=3.51 pd=18.78 as=1.485 ps=9.33 w=9 l=0.5
X144 vdd.t46 vdd.t43 vdd.t45 vdd.t44 sky130_fd_pr__pfet_01v8_lvt ad=3.51 pd=18.78 as=0 ps=0 w=9 l=0.5
X145 CSoutput.t92 a_n7636_8799.t72 vdd.t196 vdd.t127 sky130_fd_pr__pfet_01v8_lvt ad=1.32 pd=8.33 as=1.32 ps=8.33 w=8 l=0.5
X146 plus.t2 gnd.t191 gnd.t193 gnd.t192 sky130_fd_pr__nfet_01v8 ad=0.165 pd=1.33 as=0.165 ps=1.33 w=1 l=0.5
X147 gnd.t52 commonsourceibias.t67 CSoutput.t44 gnd.t23 sky130_fd_pr__nfet_01v8 ad=1.155 pd=7.33 as=1.155 ps=7.33 w=7 l=1
X148 vdd.t195 a_n7636_8799.t73 CSoutput.t111 vdd.t111 sky130_fd_pr__pfet_01v8_lvt ad=1.32 pd=8.33 as=1.32 ps=8.33 w=8 l=0.5
X149 vdd.t194 a_n7636_8799.t74 CSoutput.t87 vdd.t193 sky130_fd_pr__pfet_01v8_lvt ad=1.32 pd=8.33 as=1.32 ps=8.33 w=8 l=0.5
X150 a_n1986_13878.t23 a_n1986_13878.t22 a_n1808_13878.t12 vdd.t267 sky130_fd_pr__pfet_01v8_lvt ad=1.485 pd=9.33 as=1.485 ps=9.33 w=9 l=0.5
X151 CSoutput.t176 a_n1986_8322.t23 sky130_fd_pr__cap_mim_m3_1 l=12 w=12
X152 CSoutput.t83 a_n7636_8799.t75 vdd.t192 vdd.t147 sky130_fd_pr__pfet_01v8_lvt ad=1.32 pd=8.33 as=1.32 ps=8.33 w=8 l=0.5
X153 a_n7636_8799.t0 a_n1986_13878.t50 a_n1986_8322.t15 vdd.t3 sky130_fd_pr__pfet_01v8_lvt ad=1.485 pd=9.33 as=1.485 ps=9.33 w=9 l=0.5
X154 gnd.t190 gnd.t188 minus.t3 gnd.t189 sky130_fd_pr__nfet_01v8 ad=0.165 pd=1.33 as=0.165 ps=1.33 w=1 l=0.5
X155 CSoutput.t43 commonsourceibias.t68 gnd.t248 gnd.t247 sky130_fd_pr__nfet_01v8 ad=1.155 pd=7.33 as=1.155 ps=7.33 w=7 l=1
X156 a_n1986_13878.t36 minus.t13 a_n2903_n3924.t35 gnd.t76 sky130_fd_pr__nfet_01v8 ad=1.155 pd=7.33 as=1.155 ps=7.33 w=7 l=0.5
X157 CSoutput.t177 a_n1986_8322.t22 sky130_fd_pr__cap_mim_m3_1 l=12 w=12
X158 a_n1808_13878.t11 a_n1986_13878.t18 a_n1986_13878.t19 vdd.t84 sky130_fd_pr__pfet_01v8_lvt ad=1.485 pd=9.33 as=1.485 ps=9.33 w=9 l=0.5
X159 vdd.t191 a_n7636_8799.t76 CSoutput.t147 vdd.t177 sky130_fd_pr__pfet_01v8_lvt ad=1.32 pd=8.33 as=1.32 ps=8.33 w=8 l=0.5
X160 CSoutput.t150 a_n7636_8799.t77 vdd.t190 vdd.t179 sky130_fd_pr__pfet_01v8_lvt ad=1.32 pd=8.33 as=1.32 ps=8.33 w=8 l=0.5
X161 vdd.t2 a_n1986_13878.t51 a_n1986_8322.t3 vdd.t1 sky130_fd_pr__pfet_01v8_lvt ad=1.485 pd=9.33 as=3.51 ps=18.78 w=9 l=0.5
X162 gnd.t187 gnd.t184 gnd.t186 gnd.t185 sky130_fd_pr__nfet_01v8 ad=2.73 pd=14.78 as=0 ps=0 w=7 l=1
X163 a_n2903_n3924.t36 diffpairibias.t19 gnd.t271 gnd.t270 sky130_fd_pr__nfet_01v8 ad=2.73 pd=14.78 as=2.73 ps=14.78 w=7 l=1
X164 CSoutput.t160 a_n7636_8799.t78 vdd.t189 vdd.t175 sky130_fd_pr__pfet_01v8_lvt ad=1.32 pd=8.33 as=1.32 ps=8.33 w=8 l=0.5
X165 CSoutput.t42 commonsourceibias.t69 gnd.t273 gnd.t16 sky130_fd_pr__nfet_01v8 ad=1.155 pd=7.33 as=1.155 ps=7.33 w=7 l=1
X166 a_n1986_13878.t3 minus.t14 a_n2903_n3924.t3 gnd.t32 sky130_fd_pr__nfet_01v8 ad=1.155 pd=7.33 as=1.155 ps=7.33 w=7 l=0.5
X167 CSoutput.t41 commonsourceibias.t70 gnd.t231 gnd.t98 sky130_fd_pr__nfet_01v8 ad=1.155 pd=7.33 as=1.155 ps=7.33 w=7 l=1
X168 a_n2903_n3924.t4 diffpairibias.t20 gnd.t40 gnd.t39 sky130_fd_pr__nfet_01v8 ad=2.73 pd=14.78 as=2.73 ps=14.78 w=7 l=1
X169 vdd.t188 a_n7636_8799.t79 CSoutput.t107 vdd.t87 sky130_fd_pr__pfet_01v8_lvt ad=3.12 pd=16.78 as=1.32 ps=8.33 w=8 l=0.5
X170 vdd.t187 a_n7636_8799.t80 CSoutput.t97 vdd.t124 sky130_fd_pr__pfet_01v8_lvt ad=1.32 pd=8.33 as=1.32 ps=8.33 w=8 l=0.5
X171 gnd.t48 commonsourceibias.t71 CSoutput.t40 gnd.t21 sky130_fd_pr__nfet_01v8 ad=2.73 pd=14.78 as=1.155 ps=7.33 w=7 l=1
X172 CSoutput.t39 commonsourceibias.t72 gnd.t74 gnd.t73 sky130_fd_pr__nfet_01v8 ad=1.155 pd=7.33 as=1.155 ps=7.33 w=7 l=1
X173 vdd.t186 a_n7636_8799.t81 CSoutput.t99 vdd.t165 sky130_fd_pr__pfet_01v8_lvt ad=1.32 pd=8.33 as=1.32 ps=8.33 w=8 l=0.5
X174 vdd.t185 a_n7636_8799.t82 CSoutput.t10 vdd.t135 sky130_fd_pr__pfet_01v8_lvt ad=1.32 pd=8.33 as=1.32 ps=8.33 w=8 l=0.5
X175 a_n1986_13878.t1 minus.t15 a_n2903_n3924.t1 gnd.t26 sky130_fd_pr__nfet_01v8 ad=1.155 pd=7.33 as=1.155 ps=7.33 w=7 l=0.5
X176 gnd.t183 gnd.t181 gnd.t182 gnd.t139 sky130_fd_pr__nfet_01v8 ad=2.73 pd=14.78 as=0 ps=0 w=7 l=1
X177 diffpairibias.t9 diffpairibias.t8 gnd.t241 gnd.t240 sky130_fd_pr__nfet_01v8 ad=2.73 pd=14.78 as=2.73 ps=14.78 w=7 l=1
X178 CSoutput.t102 a_n7636_8799.t83 vdd.t184 vdd.t183 sky130_fd_pr__pfet_01v8_lvt ad=1.32 pd=8.33 as=1.32 ps=8.33 w=8 l=0.5
X179 CSoutput.t153 a_n7636_8799.t84 vdd.t182 vdd.t89 sky130_fd_pr__pfet_01v8_lvt ad=1.32 pd=8.33 as=1.32 ps=8.33 w=8 l=0.5
X180 a_n2903_n3924.t27 plus.t12 a_n7636_8799.t4 gnd.t34 sky130_fd_pr__nfet_01v8 ad=1.155 pd=7.33 as=1.155 ps=7.33 w=7 l=0.5
X181 CSoutput.t11 a_n7636_8799.t85 vdd.t181 vdd.t158 sky130_fd_pr__pfet_01v8_lvt ad=1.32 pd=8.33 as=1.32 ps=8.33 w=8 l=0.5
X182 CSoutput.t38 commonsourceibias.t73 gnd.t64 gnd.t61 sky130_fd_pr__nfet_01v8 ad=1.155 pd=7.33 as=2.73 ps=14.78 w=7 l=1
X183 gnd.t54 commonsourceibias.t74 CSoutput.t37 gnd.t53 sky130_fd_pr__nfet_01v8 ad=1.155 pd=7.33 as=1.155 ps=7.33 w=7 l=1
X184 vdd.t42 vdd.t40 vdd.t41 vdd.t16 sky130_fd_pr__pfet_01v8_lvt ad=3.12 pd=16.78 as=0 ps=0 w=8 l=0.5
X185 a_n1808_13878.t5 a_n1986_13878.t52 vdd.t272 vdd.t271 sky130_fd_pr__pfet_01v8_lvt ad=1.485 pd=9.33 as=1.485 ps=9.33 w=9 l=0.5
X186 vdd.t287 a_n1986_13878.t53 a_n1808_13878.t4 vdd.t286 sky130_fd_pr__pfet_01v8_lvt ad=1.485 pd=9.33 as=1.485 ps=9.33 w=9 l=0.5
X187 gnd.t180 gnd.t178 minus.t2 gnd.t179 sky130_fd_pr__nfet_01v8 ad=0.39 pd=2.78 as=0.165 ps=1.33 w=1 l=0.5
X188 plus.t1 gnd.t175 gnd.t177 gnd.t176 sky130_fd_pr__nfet_01v8 ad=0.165 pd=1.33 as=0.165 ps=1.33 w=1 l=0.5
X189 gnd.t116 gnd.t113 gnd.t115 gnd.t114 sky130_fd_pr__nfet_01v8 ad=2.73 pd=14.78 as=0 ps=0 w=7 l=0.5
X190 gnd.t174 gnd.t172 gnd.t173 gnd.t118 sky130_fd_pr__nfet_01v8 ad=2.73 pd=14.78 as=0 ps=0 w=7 l=0.5
X191 a_n2903_n3924.t26 plus.t13 a_n7636_8799.t15 gnd.t109 sky130_fd_pr__nfet_01v8 ad=1.155 pd=7.33 as=1.155 ps=7.33 w=7 l=0.5
X192 gnd.t266 commonsourceibias.t22 commonsourceibias.t23 gnd.t10 sky130_fd_pr__nfet_01v8 ad=1.155 pd=7.33 as=1.155 ps=7.33 w=7 l=1
X193 gnd.t102 commonsourceibias.t75 CSoutput.t36 gnd.t101 sky130_fd_pr__nfet_01v8 ad=2.73 pd=14.78 as=1.155 ps=7.33 w=7 l=1
X194 output.t9 CSoutput.t178 vdd.t252 gnd.t25 sky130_fd_pr__nfet_01v8_lvt ad=0.825 pd=5.33 as=0.825 ps=5.33 w=5 l=1
X195 vdd.t39 vdd.t37 vdd.t38 vdd.t24 sky130_fd_pr__pfet_01v8_lvt ad=3.12 pd=16.78 as=0 ps=0 w=8 l=0.5
X196 CSoutput.t113 a_n7636_8799.t86 vdd.t180 vdd.t179 sky130_fd_pr__pfet_01v8_lvt ad=1.32 pd=8.33 as=1.32 ps=8.33 w=8 l=0.5
X197 vdd.t178 a_n7636_8799.t87 CSoutput.t112 vdd.t177 sky130_fd_pr__pfet_01v8_lvt ad=1.32 pd=8.33 as=1.32 ps=8.33 w=8 l=0.5
X198 vdd.t36 vdd.t34 vdd.t35 vdd.t24 sky130_fd_pr__pfet_01v8_lvt ad=3.12 pd=16.78 as=0 ps=0 w=8 l=0.5
X199 gnd.t71 commonsourceibias.t76 CSoutput.t35 gnd.t70 sky130_fd_pr__nfet_01v8 ad=1.155 pd=7.33 as=1.155 ps=7.33 w=7 l=1
X200 diffpairibias.t7 diffpairibias.t6 gnd.t243 gnd.t242 sky130_fd_pr__nfet_01v8 ad=2.73 pd=14.78 as=2.73 ps=14.78 w=7 l=1
X201 CSoutput.t165 a_n7636_8799.t88 vdd.t176 vdd.t175 sky130_fd_pr__pfet_01v8_lvt ad=1.32 pd=8.33 as=1.32 ps=8.33 w=8 l=0.5
X202 gnd.t233 commonsourceibias.t20 commonsourceibias.t21 gnd.t70 sky130_fd_pr__nfet_01v8 ad=1.155 pd=7.33 as=1.155 ps=7.33 w=7 l=1
X203 output.t8 CSoutput.t179 vdd.t256 gnd.t90 sky130_fd_pr__nfet_01v8_lvt ad=0.825 pd=5.33 as=0.825 ps=5.33 w=5 l=1
X204 vdd.t174 a_n7636_8799.t89 CSoutput.t75 vdd.t87 sky130_fd_pr__pfet_01v8_lvt ad=3.12 pd=16.78 as=1.32 ps=8.33 w=8 l=0.5
X205 vdd.t173 a_n7636_8799.t90 CSoutput.t158 vdd.t124 sky130_fd_pr__pfet_01v8_lvt ad=1.32 pd=8.33 as=1.32 ps=8.33 w=8 l=0.5
X206 CSoutput.t34 commonsourceibias.t77 gnd.t47 gnd.t46 sky130_fd_pr__nfet_01v8 ad=1.155 pd=7.33 as=1.155 ps=7.33 w=7 l=1
X207 gnd.t171 gnd.t169 gnd.t170 gnd.t139 sky130_fd_pr__nfet_01v8 ad=2.73 pd=14.78 as=0 ps=0 w=7 l=1
X208 gnd.t168 gnd.t166 gnd.t167 gnd.t127 sky130_fd_pr__nfet_01v8 ad=2.73 pd=14.78 as=0 ps=0 w=7 l=1
X209 a_n1986_8322.t14 a_n1986_13878.t54 a_n7636_8799.t24 vdd.t6 sky130_fd_pr__pfet_01v8_lvt ad=1.485 pd=9.33 as=1.485 ps=9.33 w=9 l=0.5
X210 CSoutput.t9 a_n7636_8799.t91 vdd.t172 vdd.t130 sky130_fd_pr__pfet_01v8_lvt ad=1.32 pd=8.33 as=1.32 ps=8.33 w=8 l=0.5
X211 CSoutput.t33 commonsourceibias.t78 gnd.t264 gnd.t247 sky130_fd_pr__nfet_01v8 ad=1.155 pd=7.33 as=1.155 ps=7.33 w=7 l=1
X212 vdd.t171 a_n7636_8799.t92 CSoutput.t167 vdd.t170 sky130_fd_pr__pfet_01v8_lvt ad=1.32 pd=8.33 as=1.32 ps=8.33 w=8 l=0.5
X213 vdd.t169 a_n7636_8799.t93 CSoutput.t3 vdd.t168 sky130_fd_pr__pfet_01v8_lvt ad=1.32 pd=8.33 as=1.32 ps=8.33 w=8 l=0.5
X214 CSoutput.t72 a_n7636_8799.t94 vdd.t167 vdd.t103 sky130_fd_pr__pfet_01v8_lvt ad=1.32 pd=8.33 as=1.32 ps=8.33 w=8 l=0.5
X215 vdd.t166 a_n7636_8799.t95 CSoutput.t88 vdd.t165 sky130_fd_pr__pfet_01v8_lvt ad=1.32 pd=8.33 as=1.32 ps=8.33 w=8 l=0.5
X216 vdd.t164 a_n7636_8799.t96 CSoutput.t116 vdd.t135 sky130_fd_pr__pfet_01v8_lvt ad=1.32 pd=8.33 as=1.32 ps=8.33 w=8 l=0.5
X217 vdd.t274 a_n1986_13878.t55 a_n1986_8322.t2 vdd.t273 sky130_fd_pr__pfet_01v8_lvt ad=1.485 pd=9.33 as=3.51 ps=18.78 w=9 l=0.5
X218 gnd.t165 gnd.t163 minus.t1 gnd.t164 sky130_fd_pr__nfet_01v8 ad=0.165 pd=1.33 as=0.39 ps=2.78 w=1 l=0.5
X219 gnd.t239 commonsourceibias.t18 commonsourceibias.t19 gnd.t12 sky130_fd_pr__nfet_01v8 ad=1.155 pd=7.33 as=1.155 ps=7.33 w=7 l=1
X220 a_n1808_13878.t3 a_n1986_13878.t56 vdd.t282 vdd.t281 sky130_fd_pr__pfet_01v8_lvt ad=3.51 pd=18.78 as=1.485 ps=9.33 w=9 l=0.5
X221 gnd.t162 gnd.t159 gnd.t161 gnd.t160 sky130_fd_pr__nfet_01v8 ad=2.73 pd=14.78 as=0 ps=0 w=7 l=1
X222 CSoutput.t32 commonsourceibias.t79 gnd.t230 gnd.t30 sky130_fd_pr__nfet_01v8 ad=1.155 pd=7.33 as=1.155 ps=7.33 w=7 l=1
X223 a_n2903_n3924.t7 diffpairibias.t21 gnd.t67 gnd.t66 sky130_fd_pr__nfet_01v8 ad=2.73 pd=14.78 as=2.73 ps=14.78 w=7 l=1
X224 vdd.t163 a_n7636_8799.t97 CSoutput.t89 vdd.t145 sky130_fd_pr__pfet_01v8_lvt ad=1.32 pd=8.33 as=1.32 ps=8.33 w=8 l=0.5
X225 CSoutput.t161 a_n7636_8799.t98 vdd.t162 vdd.t158 sky130_fd_pr__pfet_01v8_lvt ad=1.32 pd=8.33 as=1.32 ps=8.33 w=8 l=0.5
X226 CSoutput.t31 commonsourceibias.t80 gnd.t100 gnd.t98 sky130_fd_pr__nfet_01v8 ad=1.155 pd=7.33 as=1.155 ps=7.33 w=7 l=1
X227 output.t7 CSoutput.t180 vdd.t255 gnd.t91 sky130_fd_pr__nfet_01v8_lvt ad=0.825 pd=5.33 as=0.825 ps=5.33 w=5 l=1
X228 CSoutput.t4 a_n7636_8799.t99 vdd.t161 vdd.t143 sky130_fd_pr__pfet_01v8_lvt ad=1.32 pd=8.33 as=1.32 ps=8.33 w=8 l=0.5
X229 vdd.t33 vdd.t30 vdd.t32 vdd.t31 sky130_fd_pr__pfet_01v8_lvt ad=3.12 pd=16.78 as=0 ps=0 w=8 l=0.5
X230 CSoutput.t181 a_n1986_8322.t21 sky130_fd_pr__cap_mim_m3_1 l=12 w=12
X231 vdd.t29 vdd.t27 vdd.t28 vdd.t16 sky130_fd_pr__pfet_01v8_lvt ad=3.12 pd=16.78 as=0 ps=0 w=8 l=0.5
X232 CSoutput.t30 commonsourceibias.t81 gnd.t263 gnd.t73 sky130_fd_pr__nfet_01v8 ad=1.155 pd=7.33 as=1.155 ps=7.33 w=7 l=1
X233 gnd.t158 gnd.t155 gnd.t157 gnd.t156 sky130_fd_pr__nfet_01v8_lvt ad=1.95 pd=10.78 as=0 ps=0 w=5 l=1
X234 a_n1986_8322.t13 a_n1986_13878.t57 a_n7636_8799.t7 vdd.t267 sky130_fd_pr__pfet_01v8_lvt ad=1.485 pd=9.33 as=1.485 ps=9.33 w=9 l=0.5
X235 vdd.t284 a_n1986_13878.t58 a_n1986_8322.t1 vdd.t283 sky130_fd_pr__pfet_01v8_lvt ad=1.485 pd=9.33 as=1.485 ps=9.33 w=9 l=0.5
X236 vdd.t26 vdd.t23 vdd.t25 vdd.t24 sky130_fd_pr__pfet_01v8_lvt ad=3.12 pd=16.78 as=0 ps=0 w=8 l=0.5
X237 vdd.t160 a_n7636_8799.t100 CSoutput.t6 vdd.t115 sky130_fd_pr__pfet_01v8_lvt ad=1.32 pd=8.33 as=1.32 ps=8.33 w=8 l=0.5
X238 CSoutput.t64 a_n7636_8799.t101 vdd.t159 vdd.t158 sky130_fd_pr__pfet_01v8_lvt ad=1.32 pd=8.33 as=1.32 ps=8.33 w=8 l=0.5
X239 gnd.t56 commonsourceibias.t82 CSoutput.t29 gnd.t12 sky130_fd_pr__nfet_01v8 ad=1.155 pd=7.33 as=1.155 ps=7.33 w=7 l=1
X240 output.t18 outputibias.t9 gnd.t223 gnd.t222 sky130_fd_pr__nfet_01v8 ad=2.34 pd=12.78 as=2.34 ps=12.78 w=6 l=2
X241 CSoutput.t15 a_n7636_8799.t102 vdd.t157 vdd.t109 sky130_fd_pr__pfet_01v8_lvt ad=1.32 pd=8.33 as=1.32 ps=8.33 w=8 l=0.5
X242 a_n2903_n3924.t25 plus.t14 a_n7636_8799.t10 gnd.t20 sky130_fd_pr__nfet_01v8 ad=1.155 pd=7.33 as=1.155 ps=7.33 w=7 l=0.5
X243 gnd.t154 gnd.t152 gnd.t153 gnd.t135 sky130_fd_pr__nfet_01v8 ad=2.73 pd=14.78 as=0 ps=0 w=7 l=1
X244 vdd.t247 CSoutput.t182 output.t6 gnd.t257 sky130_fd_pr__nfet_01v8_lvt ad=0.825 pd=5.33 as=0.825 ps=5.33 w=5 l=1
X245 vdd.t156 a_n7636_8799.t103 CSoutput.t141 vdd.t138 sky130_fd_pr__pfet_01v8_lvt ad=1.32 pd=8.33 as=1.32 ps=8.33 w=8 l=0.5
X246 vdd.t155 a_n7636_8799.t104 CSoutput.t82 vdd.t97 sky130_fd_pr__pfet_01v8_lvt ad=1.32 pd=8.33 as=1.32 ps=8.33 w=8 l=0.5
X247 a_n2903_n3924.t5 minus.t16 a_n1986_13878.t28 gnd.t45 sky130_fd_pr__nfet_01v8 ad=1.155 pd=7.33 as=1.155 ps=7.33 w=7 l=0.5