* NGSPICE file created from opamp99.ext - technology: sky130A

.subckt opamp99 gnd CSoutput output vdd plus minus commonsourceibias outputibias diffpairibias
X0 a_n2140_13878.t22 a_n2356_n452.t40 a_n2356_n452.t41 vdd.t218 sky130_fd_pr__pfet_01v8 ad=1.485 pd=9.33 as=1.485 ps=9.33 w=9 l=0.5
X1 CSoutput.t127 a_n6972_8799.t36 vdd.t156 vdd.t24 sky130_fd_pr__pfet_01v8 ad=1.32 pd=8.33 as=1.32 ps=8.33 w=8 l=0.5
X2 a_n2140_13878.t3 a_n2356_n452.t52 vdd.t229 vdd.t228 sky130_fd_pr__pfet_01v8 ad=1.485 pd=9.33 as=1.485 ps=9.33 w=9 l=0.5
X3 vdd.t166 a_n6972_8799.t37 CSoutput.t126 vdd.t4 sky130_fd_pr__pfet_01v8 ad=1.32 pd=8.33 as=1.32 ps=8.33 w=8 l=0.5
X4 vdd.t101 vdd.t99 vdd.t100 vdd.t43 sky130_fd_pr__pfet_01v8 ad=3.12 pd=16.78 as=0 ps=0 w=8 l=0.5
X5 a_n6972_8799.t3 plus.t5 a_n3827_n3924.t20 gnd.t167 sky130_fd_pr__nfet_01v8 ad=1.155 pd=7.33 as=1.155 ps=7.33 w=7 l=0.9
X6 CSoutput.t125 a_n6972_8799.t38 vdd.t129 vdd.t128 sky130_fd_pr__pfet_01v8 ad=1.32 pd=8.33 as=1.32 ps=8.33 w=8 l=0.5
X7 a_n3827_n3924.t19 plus.t6 a_n6972_8799.t1 gnd.t166 sky130_fd_pr__nfet_01v8 ad=2.73 pd=14.78 as=1.155 ps=7.33 w=7 l=0.9
X8 a_n3827_n3924.t0 diffpairibias.t20 gnd.t19 gnd.t18 sky130_fd_pr__nfet_01v8 ad=2.73 pd=14.78 as=2.73 ps=14.78 w=7 l=1
X9 gnd.t288 commonsourceibias.t64 CSoutput.t53 gnd.t34 sky130_fd_pr__nfet_01v8 ad=1.155 pd=7.33 as=1.155 ps=7.33 w=7 l=1
X10 gnd.t147 gnd.t145 gnd.t146 gnd.t61 sky130_fd_pr__nfet_01v8 ad=2.73 pd=14.78 as=0 ps=0 w=7 l=1
X11 commonsourceibias.t63 commonsourceibias.t62 gnd.t293 gnd.t176 sky130_fd_pr__nfet_01v8 ad=1.155 pd=7.33 as=1.155 ps=7.33 w=7 l=1
X12 a_n2318_8322.t27 a_n2356_n452.t53 a_n6972_8799.t21 vdd.t227 sky130_fd_pr__pfet_01v8 ad=1.485 pd=9.33 as=1.485 ps=9.33 w=9 l=0.5
X13 CSoutput.t54 commonsourceibias.t65 gnd.t289 gnd.t235 sky130_fd_pr__nfet_01v8 ad=1.155 pd=7.33 as=1.155 ps=7.33 w=7 l=1
X14 vdd.t169 CSoutput.t136 output.t15 gnd.t17 sky130_fd_pr__nfet_01v8 ad=0.825 pd=5.33 as=0.825 ps=5.33 w=5 l=1
X15 gnd.t144 gnd.t142 gnd.t143 gnd.t57 sky130_fd_pr__nfet_01v8 ad=2.73 pd=14.78 as=0 ps=0 w=7 l=1
X16 CSoutput.t124 a_n6972_8799.t39 vdd.t136 vdd.t0 sky130_fd_pr__pfet_01v8 ad=1.32 pd=8.33 as=1.32 ps=8.33 w=8 l=0.5
X17 vdd.t130 a_n6972_8799.t40 CSoutput.t123 vdd.t113 sky130_fd_pr__pfet_01v8 ad=1.32 pd=8.33 as=1.32 ps=8.33 w=8 l=0.5
X18 gnd.t141 gnd.t139 gnd.t140 gnd.t57 sky130_fd_pr__nfet_01v8 ad=2.73 pd=14.78 as=0 ps=0 w=7 l=1
X19 gnd.t170 commonsourceibias.t60 commonsourceibias.t61 gnd.t28 sky130_fd_pr__nfet_01v8 ad=2.73 pd=14.78 as=1.155 ps=7.33 w=7 l=1
X20 CSoutput.t32 commonsourceibias.t66 gnd.t237 gnd.t172 sky130_fd_pr__nfet_01v8 ad=1.155 pd=7.33 as=1.155 ps=7.33 w=7 l=1
X21 a_n6972_8799.t32 a_n2356_n452.t54 a_n2318_8322.t26 vdd.t216 sky130_fd_pr__pfet_01v8 ad=1.485 pd=9.33 as=3.51 ps=18.78 w=9 l=0.5
X22 a_n2356_n452.t0 minus.t5 a_n3827_n3924.t29 gnd.t152 sky130_fd_pr__nfet_01v8 ad=1.155 pd=7.33 as=1.155 ps=7.33 w=7 l=0.9
X23 a_n6972_8799.t17 plus.t7 a_n3827_n3924.t18 gnd.t165 sky130_fd_pr__nfet_01v8 ad=1.155 pd=7.33 as=1.155 ps=7.33 w=7 l=0.9
X24 commonsourceibias.t59 commonsourceibias.t58 gnd.t173 gnd.t172 sky130_fd_pr__nfet_01v8 ad=1.155 pd=7.33 as=1.155 ps=7.33 w=7 l=1
X25 CSoutput.t122 a_n6972_8799.t41 vdd.t121 vdd.t15 sky130_fd_pr__pfet_01v8 ad=1.32 pd=8.33 as=1.32 ps=8.33 w=8 l=0.5
X26 vdd.t112 a_n6972_8799.t42 CSoutput.t121 vdd.t111 sky130_fd_pr__pfet_01v8 ad=1.32 pd=8.33 as=1.32 ps=8.33 w=8 l=0.5
X27 CSoutput.t33 commonsourceibias.t67 gnd.t239 gnd.t238 sky130_fd_pr__nfet_01v8 ad=1.155 pd=7.33 as=1.155 ps=7.33 w=7 l=1
X28 a_n2356_n452.t1 minus.t6 a_n3827_n3924.t30 gnd.t154 sky130_fd_pr__nfet_01v8 ad=1.155 pd=7.33 as=1.155 ps=7.33 w=7 l=0.9
X29 a_n6972_8799.t28 a_n2356_n452.t55 a_n2318_8322.t25 vdd.t183 sky130_fd_pr__pfet_01v8 ad=1.485 pd=9.33 as=3.51 ps=18.78 w=9 l=0.5
X30 commonsourceibias.t57 commonsourceibias.t56 gnd.t294 gnd.t258 sky130_fd_pr__nfet_01v8 ad=1.155 pd=7.33 as=1.155 ps=7.33 w=7 l=1
X31 vdd.t98 vdd.t96 vdd.t97 vdd.t27 sky130_fd_pr__pfet_01v8 ad=3.51 pd=18.78 as=0 ps=0 w=9 l=0.5
X32 CSoutput.t120 a_n6972_8799.t43 vdd.t25 vdd.t24 sky130_fd_pr__pfet_01v8 ad=1.32 pd=8.33 as=1.32 ps=8.33 w=8 l=0.5
X33 a_n3827_n3924.t17 plus.t8 a_n6972_8799.t4 gnd.t164 sky130_fd_pr__nfet_01v8 ad=1.155 pd=7.33 as=1.155 ps=7.33 w=7 l=0.9
X34 CSoutput.t137 a_n2318_8322.t3 sky130_fd_pr__cap_mim_m3_1 l=12 w=12
X35 gnd.t138 gnd.t136 gnd.t137 gnd.t45 sky130_fd_pr__nfet_01v8 ad=2.73 pd=14.78 as=0 ps=0 w=7 l=1
X36 CSoutput.t119 a_n6972_8799.t44 vdd.t162 vdd.t161 sky130_fd_pr__pfet_01v8 ad=1.32 pd=8.33 as=3.12 ps=16.78 w=8 l=0.5
X37 vdd.t95 vdd.t93 vdd.t94 vdd.t43 sky130_fd_pr__pfet_01v8 ad=3.12 pd=16.78 as=0 ps=0 w=8 l=0.5
X38 a_n3827_n3924.t37 minus.t7 a_n2356_n452.t8 gnd.t153 sky130_fd_pr__nfet_01v8 ad=1.155 pd=7.33 as=1.155 ps=7.33 w=7 l=0.9
X39 a_n3827_n3924.t28 diffpairibias.t21 gnd.t276 gnd.t275 sky130_fd_pr__nfet_01v8 ad=2.73 pd=14.78 as=2.73 ps=14.78 w=7 l=1
X40 CSoutput.t52 commonsourceibias.t68 gnd.t287 gnd.t280 sky130_fd_pr__nfet_01v8 ad=1.155 pd=7.33 as=1.155 ps=7.33 w=7 l=1
X41 gnd.t135 gnd.t132 gnd.t134 gnd.t133 sky130_fd_pr__nfet_01v8 ad=1.95 pd=10.78 as=0 ps=0 w=5 l=1
X42 gnd.t290 commonsourceibias.t54 commonsourceibias.t55 gnd.t32 sky130_fd_pr__nfet_01v8 ad=2.73 pd=14.78 as=1.155 ps=7.33 w=7 l=1
X43 gnd.t196 commonsourceibias.t69 CSoutput.t19 gnd.t195 sky130_fd_pr__nfet_01v8 ad=1.155 pd=7.33 as=1.155 ps=7.33 w=7 l=1
X44 CSoutput.t118 a_n6972_8799.t45 vdd.t150 vdd.t128 sky130_fd_pr__pfet_01v8 ad=1.32 pd=8.33 as=1.32 ps=8.33 w=8 l=0.5
X45 output.t14 CSoutput.t138 vdd.t170 gnd.t16 sky130_fd_pr__nfet_01v8 ad=0.825 pd=5.33 as=0.825 ps=5.33 w=5 l=1
X46 gnd.t205 commonsourceibias.t70 CSoutput.t22 gnd.t204 sky130_fd_pr__nfet_01v8 ad=1.155 pd=7.33 as=1.155 ps=7.33 w=7 l=1
X47 commonsourceibias.t53 commonsourceibias.t52 gnd.t207 gnd.t206 sky130_fd_pr__nfet_01v8 ad=1.155 pd=7.33 as=1.155 ps=7.33 w=7 l=1
X48 a_n2140_13878.t21 a_n2356_n452.t38 a_n2356_n452.t39 vdd.t191 sky130_fd_pr__pfet_01v8 ad=1.485 pd=9.33 as=1.485 ps=9.33 w=9 l=0.5
X49 a_n2356_n452.t43 a_n2356_n452.t42 a_n2140_13878.t20 vdd.t201 sky130_fd_pr__pfet_01v8 ad=1.485 pd=9.33 as=1.485 ps=9.33 w=9 l=0.5
X50 CSoutput.t117 a_n6972_8799.t46 vdd.t165 vdd.t0 sky130_fd_pr__pfet_01v8 ad=1.32 pd=8.33 as=1.32 ps=8.33 w=8 l=0.5
X51 gnd.t318 commonsourceibias.t71 CSoutput.t135 gnd.t182 sky130_fd_pr__nfet_01v8 ad=1.155 pd=7.33 as=1.155 ps=7.33 w=7 l=1
X52 CSoutput.t139 a_n2318_8322.t1 sky130_fd_pr__cap_mim_m3_1 l=12 w=12
X53 vdd.t92 vdd.t90 vdd.t91 vdd.t73 sky130_fd_pr__pfet_01v8 ad=3.51 pd=18.78 as=0 ps=0 w=9 l=0.5
X54 vdd.t143 a_n6972_8799.t47 CSoutput.t116 vdd.t113 sky130_fd_pr__pfet_01v8 ad=1.32 pd=8.33 as=1.32 ps=8.33 w=8 l=0.5
X55 plus.t2 gnd.t129 gnd.t131 gnd.t130 sky130_fd_pr__nfet_01v8 ad=0.165 pd=1.33 as=0.165 ps=1.33 w=1 l=0.5
X56 a_n3827_n3924.t16 plus.t9 a_n6972_8799.t10 gnd.t163 sky130_fd_pr__nfet_01v8 ad=1.155 pd=7.33 as=1.155 ps=7.33 w=7 l=0.9
X57 gnd.t260 commonsourceibias.t50 commonsourceibias.t51 gnd.t195 sky130_fd_pr__nfet_01v8 ad=1.155 pd=7.33 as=1.155 ps=7.33 w=7 l=1
X58 output.t13 CSoutput.t140 vdd.t125 gnd.t15 sky130_fd_pr__nfet_01v8 ad=1.95 pd=10.78 as=0.825 ps=5.33 w=5 l=1
X59 gnd.t128 gnd.t126 gnd.t127 gnd.t102 sky130_fd_pr__nfet_01v8 ad=2.73 pd=14.78 as=0 ps=0 w=7 l=0.9
X60 a_n3827_n3924.t15 plus.t10 a_n6972_8799.t14 gnd.t162 sky130_fd_pr__nfet_01v8 ad=1.155 pd=7.33 as=1.155 ps=7.33 w=7 l=0.9
X61 commonsourceibias.t49 commonsourceibias.t48 gnd.t252 gnd.t187 sky130_fd_pr__nfet_01v8 ad=1.155 pd=7.33 as=1.155 ps=7.33 w=7 l=1
X62 diffpairibias.t19 diffpairibias.t18 gnd.t311 gnd.t310 sky130_fd_pr__nfet_01v8 ad=2.73 pd=14.78 as=2.73 ps=14.78 w=7 l=1
X63 a_n6972_8799.t19 a_n2356_n452.t56 a_n2318_8322.t24 vdd.t209 sky130_fd_pr__pfet_01v8 ad=1.485 pd=9.33 as=1.485 ps=9.33 w=9 l=0.5
X64 vdd.t148 a_n6972_8799.t48 CSoutput.t115 vdd.t108 sky130_fd_pr__pfet_01v8 ad=1.32 pd=8.33 as=1.32 ps=8.33 w=8 l=0.5
X65 CSoutput.t114 a_n6972_8799.t49 vdd.t135 vdd.t115 sky130_fd_pr__pfet_01v8 ad=1.32 pd=8.33 as=1.32 ps=8.33 w=8 l=0.5
X66 commonsourceibias.t47 commonsourceibias.t46 gnd.t291 gnd.t244 sky130_fd_pr__nfet_01v8 ad=1.155 pd=7.33 as=1.155 ps=7.33 w=7 l=1
X67 gnd.t305 commonsourceibias.t44 commonsourceibias.t45 gnd.t304 sky130_fd_pr__nfet_01v8 ad=1.155 pd=7.33 as=1.155 ps=7.33 w=7 l=1
X68 diffpairibias.t17 diffpairibias.t16 gnd.t39 gnd.t38 sky130_fd_pr__nfet_01v8 ad=2.73 pd=14.78 as=2.73 ps=14.78 w=7 l=1
X69 gnd.t125 gnd.t123 gnd.t124 gnd.t61 sky130_fd_pr__nfet_01v8 ad=2.73 pd=14.78 as=0 ps=0 w=7 l=1
X70 CSoutput.t113 a_n6972_8799.t50 vdd.t3 vdd.t2 sky130_fd_pr__pfet_01v8 ad=1.32 pd=8.33 as=3.12 ps=16.78 w=8 l=0.5
X71 output.t19 outputibias.t8 gnd.t272 gnd.t271 sky130_fd_pr__nfet_01v8 ad=2.34 pd=12.78 as=2.34 ps=12.78 w=6 l=2
X72 CSoutput.t31 commonsourceibias.t72 gnd.t236 gnd.t235 sky130_fd_pr__nfet_01v8 ad=1.155 pd=7.33 as=1.155 ps=7.33 w=7 l=1
X73 CSoutput.t112 a_n6972_8799.t51 vdd.t232 vdd.t144 sky130_fd_pr__pfet_01v8 ad=1.32 pd=8.33 as=1.32 ps=8.33 w=8 l=0.5
X74 vdd.t157 a_n6972_8799.t52 CSoutput.t111 vdd.t19 sky130_fd_pr__pfet_01v8 ad=1.32 pd=8.33 as=1.32 ps=8.33 w=8 l=0.5
X75 CSoutput.t110 a_n6972_8799.t53 vdd.t178 vdd.t144 sky130_fd_pr__pfet_01v8 ad=1.32 pd=8.33 as=1.32 ps=8.33 w=8 l=0.5
X76 CSoutput.t109 a_n6972_8799.t54 vdd.t235 vdd.t161 sky130_fd_pr__pfet_01v8 ad=1.32 pd=8.33 as=3.12 ps=16.78 w=8 l=0.5
X77 a_n3827_n3924.t36 minus.t8 a_n2356_n452.t7 gnd.t151 sky130_fd_pr__nfet_01v8 ad=1.155 pd=7.33 as=1.155 ps=7.33 w=7 l=0.9
X78 vdd.t126 CSoutput.t141 output.t12 gnd.t14 sky130_fd_pr__nfet_01v8 ad=0.825 pd=5.33 as=1.95 ps=10.78 w=5 l=1
X79 gnd.t253 commonsourceibias.t42 commonsourceibias.t43 gnd.t182 sky130_fd_pr__nfet_01v8 ad=1.155 pd=7.33 as=1.155 ps=7.33 w=7 l=1
X80 vdd.t6 CSoutput.t142 output.t11 gnd.t13 sky130_fd_pr__nfet_01v8 ad=0.825 pd=5.33 as=0.825 ps=5.33 w=5 l=1
X81 CSoutput.t11 commonsourceibias.t73 gnd.t181 gnd.t180 sky130_fd_pr__nfet_01v8 ad=1.155 pd=7.33 as=1.155 ps=7.33 w=7 l=1
X82 a_n3827_n3924.t14 plus.t11 a_n6972_8799.t11 gnd.t161 sky130_fd_pr__nfet_01v8 ad=2.73 pd=14.78 as=1.155 ps=7.33 w=7 l=0.9
X83 CSoutput.t36 commonsourceibias.t74 gnd.t247 gnd.t206 sky130_fd_pr__nfet_01v8 ad=1.155 pd=7.33 as=1.155 ps=7.33 w=7 l=1
X84 gnd.t122 gnd.t120 minus.t4 gnd.t121 sky130_fd_pr__nfet_01v8 ad=0.165 pd=1.33 as=0.39 ps=2.78 w=1 l=0.5
X85 CSoutput.t37 commonsourceibias.t75 gnd.t248 gnd.t193 sky130_fd_pr__nfet_01v8 ad=1.155 pd=7.33 as=2.73 ps=14.78 w=7 l=1
X86 a_n6972_8799.t15 plus.t12 a_n3827_n3924.t13 gnd.t160 sky130_fd_pr__nfet_01v8 ad=1.155 pd=7.33 as=1.155 ps=7.33 w=7 l=0.9
X87 gnd.t119 gnd.t117 gnd.t118 gnd.t65 sky130_fd_pr__nfet_01v8 ad=2.73 pd=14.78 as=0 ps=0 w=7 l=0.9
X88 CSoutput.t129 commonsourceibias.t76 gnd.t302 gnd.t238 sky130_fd_pr__nfet_01v8 ad=1.155 pd=7.33 as=1.155 ps=7.33 w=7 l=1
X89 outputibias.t7 outputibias.t6 gnd.t211 gnd.t210 sky130_fd_pr__nfet_01v8 ad=2.34 pd=12.78 as=2.34 ps=12.78 w=6 l=2
X90 a_n3827_n3924.t24 diffpairibias.t22 gnd.t250 gnd.t249 sky130_fd_pr__nfet_01v8 ad=2.73 pd=14.78 as=2.73 ps=14.78 w=7 l=1
X91 vdd.t174 a_n6972_8799.t55 CSoutput.t108 vdd.t111 sky130_fd_pr__pfet_01v8 ad=1.32 pd=8.33 as=1.32 ps=8.33 w=8 l=0.5
X92 vdd.t234 a_n6972_8799.t56 CSoutput.t107 vdd.t22 sky130_fd_pr__pfet_01v8 ad=1.32 pd=8.33 as=1.32 ps=8.33 w=8 l=0.5
X93 a_n6972_8799.t33 a_n2356_n452.t57 a_n2318_8322.t23 vdd.t217 sky130_fd_pr__pfet_01v8 ad=1.485 pd=9.33 as=1.485 ps=9.33 w=9 l=0.5
X94 a_n2356_n452.t51 a_n2356_n452.t50 a_n2140_13878.t19 vdd.t227 sky130_fd_pr__pfet_01v8 ad=1.485 pd=9.33 as=1.485 ps=9.33 w=9 l=0.5
X95 a_n3827_n3924.t12 plus.t13 a_n6972_8799.t0 gnd.t159 sky130_fd_pr__nfet_01v8 ad=1.155 pd=7.33 as=1.155 ps=7.33 w=7 l=0.9
X96 a_n2356_n452.t49 a_n2356_n452.t48 a_n2140_13878.t18 vdd.t186 sky130_fd_pr__pfet_01v8 ad=3.51 pd=18.78 as=1.485 ps=9.33 w=9 l=0.5
X97 gnd.t254 commonsourceibias.t40 commonsourceibias.t41 gnd.t242 sky130_fd_pr__nfet_01v8 ad=1.155 pd=7.33 as=1.155 ps=7.33 w=7 l=1
X98 gnd.t255 commonsourceibias.t38 commonsourceibias.t39 gnd.t189 sky130_fd_pr__nfet_01v8 ad=1.155 pd=7.33 as=1.155 ps=7.33 w=7 l=1
X99 CSoutput.t106 a_n6972_8799.t57 vdd.t12 vdd.t11 sky130_fd_pr__pfet_01v8 ad=1.32 pd=8.33 as=1.32 ps=8.33 w=8 l=0.5
X100 vdd.t159 a_n6972_8799.t58 CSoutput.t105 vdd.t151 sky130_fd_pr__pfet_01v8 ad=1.32 pd=8.33 as=1.32 ps=8.33 w=8 l=0.5
X101 diffpairibias.t15 diffpairibias.t14 gnd.t213 gnd.t212 sky130_fd_pr__nfet_01v8 ad=2.73 pd=14.78 as=2.73 ps=14.78 w=7 l=1
X102 vdd.t89 vdd.t87 vdd.t88 vdd.t39 sky130_fd_pr__pfet_01v8 ad=3.12 pd=16.78 as=0 ps=0 w=8 l=0.5
X103 CSoutput.t104 a_n6972_8799.t59 vdd.t173 vdd.t2 sky130_fd_pr__pfet_01v8 ad=1.32 pd=8.33 as=3.12 ps=16.78 w=8 l=0.5
X104 vdd.t86 vdd.t84 vdd.t85 vdd.t77 sky130_fd_pr__pfet_01v8 ad=3.51 pd=18.78 as=0 ps=0 w=9 l=0.5
X105 vdd.t83 vdd.t80 vdd.t82 vdd.t81 sky130_fd_pr__pfet_01v8 ad=3.51 pd=18.78 as=0 ps=0 w=9 l=0.5
X106 gnd.t230 commonsourceibias.t77 CSoutput.t30 gnd.t0 sky130_fd_pr__nfet_01v8 ad=1.155 pd=7.33 as=1.155 ps=7.33 w=7 l=1
X107 gnd.t286 commonsourceibias.t78 CSoutput.t51 gnd.t204 sky130_fd_pr__nfet_01v8 ad=1.155 pd=7.33 as=1.155 ps=7.33 w=7 l=1
X108 gnd.t314 commonsourceibias.t79 CSoutput.t133 gnd.t304 sky130_fd_pr__nfet_01v8 ad=1.155 pd=7.33 as=1.155 ps=7.33 w=7 l=1
X109 gnd.t33 commonsourceibias.t80 CSoutput.t4 gnd.t32 sky130_fd_pr__nfet_01v8 ad=2.73 pd=14.78 as=1.155 ps=7.33 w=7 l=1
X110 output.t10 CSoutput.t143 vdd.t7 gnd.t12 sky130_fd_pr__nfet_01v8 ad=0.825 pd=5.33 as=0.825 ps=5.33 w=5 l=1
X111 a_n2318_8322.t11 a_n2356_n452.t58 vdd.t226 vdd.t225 sky130_fd_pr__pfet_01v8 ad=1.485 pd=9.33 as=1.485 ps=9.33 w=9 l=0.5
X112 vdd.t224 a_n2356_n452.t59 a_n2318_8322.t10 vdd.t223 sky130_fd_pr__pfet_01v8 ad=1.485 pd=9.33 as=1.485 ps=9.33 w=9 l=0.5
X113 a_n2356_n452.t35 a_n2356_n452.t34 a_n2140_13878.t17 vdd.t193 sky130_fd_pr__pfet_01v8 ad=3.51 pd=18.78 as=1.485 ps=9.33 w=9 l=0.5
X114 gnd.t265 commonsourceibias.t81 CSoutput.t42 gnd.t28 sky130_fd_pr__nfet_01v8 ad=2.73 pd=14.78 as=1.155 ps=7.33 w=7 l=1
X115 vdd.t8 CSoutput.t144 output.t9 gnd.t11 sky130_fd_pr__nfet_01v8 ad=0.825 pd=5.33 as=0.825 ps=5.33 w=5 l=1
X116 gnd.t116 gnd.t114 gnd.t115 gnd.t69 sky130_fd_pr__nfet_01v8 ad=2.73 pd=14.78 as=0 ps=0 w=7 l=1
X117 CSoutput.t103 a_n6972_8799.t60 vdd.t145 vdd.t144 sky130_fd_pr__pfet_01v8 ad=1.32 pd=8.33 as=1.32 ps=8.33 w=8 l=0.5
X118 a_n3827_n3924.t49 diffpairibias.t23 gnd.t322 gnd.t321 sky130_fd_pr__nfet_01v8 ad=2.73 pd=14.78 as=2.73 ps=14.78 w=7 l=1
X119 vdd.t222 a_n2356_n452.t60 a_n2140_13878.t2 vdd.t221 sky130_fd_pr__pfet_01v8 ad=1.485 pd=9.33 as=1.485 ps=9.33 w=9 l=0.5
X120 vdd.t79 vdd.t76 vdd.t78 vdd.t77 sky130_fd_pr__pfet_01v8 ad=3.51 pd=18.78 as=0 ps=0 w=9 l=0.5
X121 gnd.t203 commonsourceibias.t82 CSoutput.t21 gnd.t168 sky130_fd_pr__nfet_01v8 ad=1.155 pd=7.33 as=1.155 ps=7.33 w=7 l=1
X122 vdd.t153 a_n6972_8799.t61 CSoutput.t102 vdd.t111 sky130_fd_pr__pfet_01v8 ad=1.32 pd=8.33 as=1.32 ps=8.33 w=8 l=0.5
X123 plus.t3 gnd.t111 gnd.t113 gnd.t112 sky130_fd_pr__nfet_01v8 ad=0.165 pd=1.33 as=0.165 ps=1.33 w=1 l=0.5
X124 gnd.t110 gnd.t108 minus.t3 gnd.t109 sky130_fd_pr__nfet_01v8 ad=0.165 pd=1.33 as=0.165 ps=1.33 w=1 l=0.5
X125 a_n6972_8799.t34 a_n2356_n452.t61 a_n2318_8322.t22 vdd.t192 sky130_fd_pr__pfet_01v8 ad=1.485 pd=9.33 as=1.485 ps=9.33 w=9 l=0.5
X126 a_n2318_8322.t9 a_n2356_n452.t62 vdd.t220 vdd.t219 sky130_fd_pr__pfet_01v8 ad=3.51 pd=18.78 as=1.485 ps=9.33 w=9 l=0.5
X127 vdd.t75 vdd.t72 vdd.t74 vdd.t73 sky130_fd_pr__pfet_01v8 ad=3.51 pd=18.78 as=0 ps=0 w=9 l=0.5
X128 a_n2356_n452.t6 minus.t9 a_n3827_n3924.t35 gnd.t149 sky130_fd_pr__nfet_01v8 ad=1.155 pd=7.33 as=2.73 ps=14.78 w=7 l=0.9
X129 a_n6972_8799.t8 plus.t14 a_n3827_n3924.t11 gnd.t158 sky130_fd_pr__nfet_01v8 ad=1.155 pd=7.33 as=2.73 ps=14.78 w=7 l=0.9
X130 vdd.t152 a_n6972_8799.t62 CSoutput.t101 vdd.t151 sky130_fd_pr__pfet_01v8 ad=1.32 pd=8.33 as=1.32 ps=8.33 w=8 l=0.5
X131 a_n2356_n452.t33 a_n2356_n452.t32 a_n2140_13878.t16 vdd.t204 sky130_fd_pr__pfet_01v8 ad=1.485 pd=9.33 as=1.485 ps=9.33 w=9 l=0.5
X132 a_n6972_8799.t6 plus.t15 a_n3827_n3924.t10 gnd.t157 sky130_fd_pr__nfet_01v8 ad=1.155 pd=7.33 as=1.155 ps=7.33 w=7 l=0.9
X133 diffpairibias.t13 diffpairibias.t12 gnd.t21 gnd.t20 sky130_fd_pr__nfet_01v8 ad=2.73 pd=14.78 as=2.73 ps=14.78 w=7 l=1
X134 CSoutput.t100 a_n6972_8799.t63 vdd.t124 vdd.t11 sky130_fd_pr__pfet_01v8 ad=1.32 pd=8.33 as=1.32 ps=8.33 w=8 l=0.5
X135 a_n6972_8799.t22 a_n2356_n452.t63 a_n2318_8322.t21 vdd.t218 sky130_fd_pr__pfet_01v8 ad=1.485 pd=9.33 as=1.485 ps=9.33 w=9 l=0.5
X136 a_n2140_13878.t15 a_n2356_n452.t26 a_n2356_n452.t27 vdd.t217 sky130_fd_pr__pfet_01v8 ad=1.485 pd=9.33 as=1.485 ps=9.33 w=9 l=0.5
X137 CSoutput.t50 commonsourceibias.t83 gnd.t285 gnd.t180 sky130_fd_pr__nfet_01v8 ad=1.155 pd=7.33 as=1.155 ps=7.33 w=7 l=1
X138 commonsourceibias.t37 commonsourceibias.t36 gnd.t306 gnd.t235 sky130_fd_pr__nfet_01v8 ad=1.155 pd=7.33 as=1.155 ps=7.33 w=7 l=1
X139 CSoutput.t29 commonsourceibias.t84 gnd.t229 gnd.t206 sky130_fd_pr__nfet_01v8 ad=1.155 pd=7.33 as=1.155 ps=7.33 w=7 l=1
X140 vdd.t71 vdd.t69 vdd.t70 vdd.t39 sky130_fd_pr__pfet_01v8 ad=3.12 pd=16.78 as=0 ps=0 w=8 l=0.5
X141 CSoutput.t18 commonsourceibias.t85 gnd.t194 gnd.t193 sky130_fd_pr__nfet_01v8 ad=1.155 pd=7.33 as=2.73 ps=14.78 w=7 l=1
X142 vdd.t104 CSoutput.t145 output.t8 gnd.t10 sky130_fd_pr__nfet_01v8 ad=0.825 pd=5.33 as=0.825 ps=5.33 w=5 l=1
X143 CSoutput.t17 commonsourceibias.t86 gnd.t192 gnd.t191 sky130_fd_pr__nfet_01v8 ad=1.155 pd=7.33 as=1.155 ps=7.33 w=7 l=1
X144 a_n2140_13878.t14 a_n2356_n452.t24 a_n2356_n452.t25 vdd.t216 sky130_fd_pr__pfet_01v8 ad=1.485 pd=9.33 as=3.51 ps=18.78 w=9 l=0.5
X145 CSoutput.t99 a_n6972_8799.t64 vdd.t116 vdd.t115 sky130_fd_pr__pfet_01v8 ad=1.32 pd=8.33 as=1.32 ps=8.33 w=8 l=0.5
X146 vdd.t215 a_n2356_n452.t64 a_n2318_8322.t8 vdd.t214 sky130_fd_pr__pfet_01v8 ad=1.485 pd=9.33 as=3.51 ps=18.78 w=9 l=0.5
X147 gnd.t107 gnd.t105 minus.t2 gnd.t106 sky130_fd_pr__nfet_01v8 ad=0.39 pd=2.78 as=0.165 ps=1.33 w=1 l=0.5
X148 gnd.t31 commonsourceibias.t87 CSoutput.t3 gnd.t30 sky130_fd_pr__nfet_01v8 ad=1.155 pd=7.33 as=1.155 ps=7.33 w=7 l=1
X149 gnd.t319 commonsourceibias.t34 commonsourceibias.t35 gnd.t184 sky130_fd_pr__nfet_01v8 ad=1.155 pd=7.33 as=1.155 ps=7.33 w=7 l=1
X150 a_n2356_n452.t23 a_n2356_n452.t22 a_n2140_13878.t13 vdd.t189 sky130_fd_pr__pfet_01v8 ad=1.485 pd=9.33 as=1.485 ps=9.33 w=9 l=0.5
X151 vdd.t117 a_n6972_8799.t65 CSoutput.t98 vdd.t4 sky130_fd_pr__pfet_01v8 ad=1.32 pd=8.33 as=1.32 ps=8.33 w=8 l=0.5
X152 a_n3827_n3924.t9 plus.t16 a_n6972_8799.t13 gnd.t156 sky130_fd_pr__nfet_01v8 ad=1.155 pd=7.33 as=1.155 ps=7.33 w=7 l=0.9
X153 a_n2356_n452.t5 minus.t10 a_n3827_n3924.t34 gnd.t167 sky130_fd_pr__nfet_01v8 ad=1.155 pd=7.33 as=1.155 ps=7.33 w=7 l=0.9
X154 commonsourceibias.t33 commonsourceibias.t32 gnd.t308 gnd.t223 sky130_fd_pr__nfet_01v8 ad=1.155 pd=7.33 as=1.155 ps=7.33 w=7 l=1
X155 gnd.t323 commonsourceibias.t30 commonsourceibias.t31 gnd.t168 sky130_fd_pr__nfet_01v8 ad=1.155 pd=7.33 as=1.155 ps=7.33 w=7 l=1
X156 gnd.t307 commonsourceibias.t28 commonsourceibias.t29 gnd.t30 sky130_fd_pr__nfet_01v8 ad=1.155 pd=7.33 as=1.155 ps=7.33 w=7 l=1
X157 a_n3827_n3924.t22 diffpairibias.t24 gnd.t198 gnd.t197 sky130_fd_pr__nfet_01v8 ad=2.73 pd=14.78 as=2.73 ps=14.78 w=7 l=1
X158 commonsourceibias.t27 commonsourceibias.t26 gnd.t320 gnd.t238 sky130_fd_pr__nfet_01v8 ad=1.155 pd=7.33 as=1.155 ps=7.33 w=7 l=1
X159 a_n6972_8799.t9 plus.t17 a_n3827_n3924.t8 gnd.t155 sky130_fd_pr__nfet_01v8 ad=1.155 pd=7.33 as=1.155 ps=7.33 w=7 l=0.9
X160 gnd.t37 commonsourceibias.t88 CSoutput.t6 gnd.t36 sky130_fd_pr__nfet_01v8 ad=1.155 pd=7.33 as=1.155 ps=7.33 w=7 l=1
X161 outputibias.t5 outputibias.t4 gnd.t219 gnd.t218 sky130_fd_pr__nfet_01v8 ad=2.34 pd=12.78 as=2.34 ps=12.78 w=6 l=2
X162 a_n3827_n3924.t21 diffpairibias.t25 gnd.t175 gnd.t174 sky130_fd_pr__nfet_01v8 ad=2.73 pd=14.78 as=2.73 ps=14.78 w=7 l=1
X163 vdd.t21 a_n6972_8799.t66 CSoutput.t97 vdd.t13 sky130_fd_pr__pfet_01v8 ad=3.12 pd=16.78 as=1.32 ps=8.33 w=8 l=0.5
X164 gnd.t1 commonsourceibias.t89 CSoutput.t0 gnd.t0 sky130_fd_pr__nfet_01v8 ad=1.155 pd=7.33 as=1.155 ps=7.33 w=7 l=1
X165 gnd.t171 commonsourceibias.t90 CSoutput.t8 gnd.t32 sky130_fd_pr__nfet_01v8 ad=2.73 pd=14.78 as=1.155 ps=7.33 w=7 l=1
X166 gnd.t313 commonsourceibias.t91 CSoutput.t132 gnd.t304 sky130_fd_pr__nfet_01v8 ad=1.155 pd=7.33 as=1.155 ps=7.33 w=7 l=1
X167 gnd.t29 commonsourceibias.t92 CSoutput.t2 gnd.t28 sky130_fd_pr__nfet_01v8 ad=2.73 pd=14.78 as=1.155 ps=7.33 w=7 l=1
X168 a_n6972_8799.t2 plus.t18 a_n3827_n3924.t7 gnd.t154 sky130_fd_pr__nfet_01v8 ad=1.155 pd=7.33 as=1.155 ps=7.33 w=7 l=0.9
X169 commonsourceibias.t25 commonsourceibias.t24 gnd.t309 gnd.t221 sky130_fd_pr__nfet_01v8 ad=1.155 pd=7.33 as=1.155 ps=7.33 w=7 l=1
X170 CSoutput.t96 a_n6972_8799.t67 vdd.t141 vdd.t17 sky130_fd_pr__pfet_01v8 ad=1.32 pd=8.33 as=1.32 ps=8.33 w=8 l=0.5
X171 CSoutput.t95 a_n6972_8799.t68 vdd.t176 vdd.t24 sky130_fd_pr__pfet_01v8 ad=1.32 pd=8.33 as=1.32 ps=8.33 w=8 l=0.5
X172 gnd.t264 commonsourceibias.t93 CSoutput.t41 gnd.t227 sky130_fd_pr__nfet_01v8 ad=1.155 pd=7.33 as=1.155 ps=7.33 w=7 l=1
X173 outputibias.t3 outputibias.t2 gnd.t215 gnd.t214 sky130_fd_pr__nfet_01v8 ad=2.34 pd=12.78 as=2.34 ps=12.78 w=6 l=2
X174 a_n2140_13878.t6 a_n2356_n452.t65 vdd.t213 vdd.t212 sky130_fd_pr__pfet_01v8 ad=1.485 pd=9.33 as=1.485 ps=9.33 w=9 l=0.5
X175 CSoutput.t20 commonsourceibias.t94 gnd.t202 gnd.t201 sky130_fd_pr__nfet_01v8 ad=1.155 pd=7.33 as=1.155 ps=7.33 w=7 l=1
X176 diffpairibias.t11 diffpairibias.t10 gnd.t232 gnd.t231 sky130_fd_pr__nfet_01v8 ad=2.73 pd=14.78 as=2.73 ps=14.78 w=7 l=1
X177 vdd.t211 a_n2356_n452.t66 a_n2140_13878.t5 vdd.t210 sky130_fd_pr__pfet_01v8 ad=1.485 pd=9.33 as=1.485 ps=9.33 w=9 l=0.5
X178 gnd.t169 commonsourceibias.t95 CSoutput.t7 gnd.t168 sky130_fd_pr__nfet_01v8 ad=1.155 pd=7.33 as=1.155 ps=7.33 w=7 l=1
X179 a_n2356_n452.t4 minus.t11 a_n3827_n3924.t33 gnd.t150 sky130_fd_pr__nfet_01v8 ad=1.155 pd=7.33 as=1.155 ps=7.33 w=7 l=0.9
X180 vdd.t5 a_n6972_8799.t69 CSoutput.t94 vdd.t4 sky130_fd_pr__pfet_01v8 ad=1.32 pd=8.33 as=1.32 ps=8.33 w=8 l=0.5
X181 CSoutput.t93 a_n6972_8799.t70 vdd.t164 vdd.t115 sky130_fd_pr__pfet_01v8 ad=1.32 pd=8.33 as=1.32 ps=8.33 w=8 l=0.5
X182 a_n3827_n3924.t6 plus.t19 a_n6972_8799.t12 gnd.t153 sky130_fd_pr__nfet_01v8 ad=1.155 pd=7.33 as=1.155 ps=7.33 w=7 l=0.9
X183 gnd.t324 commonsourceibias.t22 commonsourceibias.t23 gnd.t36 sky130_fd_pr__nfet_01v8 ad=1.155 pd=7.33 as=1.155 ps=7.33 w=7 l=1
X184 CSoutput.t130 commonsourceibias.t96 gnd.t303 gnd.t258 sky130_fd_pr__nfet_01v8 ad=1.155 pd=7.33 as=1.155 ps=7.33 w=7 l=1
X185 commonsourceibias.t21 commonsourceibias.t20 gnd.t325 gnd.t191 sky130_fd_pr__nfet_01v8 ad=1.155 pd=7.33 as=1.155 ps=7.33 w=7 l=1
X186 a_n2140_13878.t12 a_n2356_n452.t36 a_n2356_n452.t37 vdd.t209 sky130_fd_pr__pfet_01v8 ad=1.485 pd=9.33 as=1.485 ps=9.33 w=9 l=0.5
X187 diffpairibias.t9 diffpairibias.t8 gnd.t274 gnd.t273 sky130_fd_pr__nfet_01v8 ad=2.73 pd=14.78 as=2.73 ps=14.78 w=7 l=1
X188 a_n2318_8322.t20 a_n2356_n452.t67 a_n6972_8799.t31 vdd.t182 sky130_fd_pr__pfet_01v8 ad=1.485 pd=9.33 as=1.485 ps=9.33 w=9 l=0.5
X189 a_n3827_n3924.t32 minus.t12 a_n2356_n452.t3 gnd.t148 sky130_fd_pr__nfet_01v8 ad=1.155 pd=7.33 as=1.155 ps=7.33 w=7 l=0.9
X190 CSoutput.t10 commonsourceibias.t97 gnd.t179 gnd.t178 sky130_fd_pr__nfet_01v8 ad=1.155 pd=7.33 as=2.73 ps=14.78 w=7 l=1
X191 gnd.t326 commonsourceibias.t18 commonsourceibias.t19 gnd.t204 sky130_fd_pr__nfet_01v8 ad=1.155 pd=7.33 as=1.155 ps=7.33 w=7 l=1
X192 vdd.t114 a_n6972_8799.t71 CSoutput.t92 vdd.t113 sky130_fd_pr__pfet_01v8 ad=1.32 pd=8.33 as=1.32 ps=8.33 w=8 l=0.5
X193 CSoutput.t91 a_n6972_8799.t72 vdd.t138 vdd.t137 sky130_fd_pr__pfet_01v8 ad=1.32 pd=8.33 as=1.32 ps=8.33 w=8 l=0.5
X194 diffpairibias.t7 diffpairibias.t6 gnd.t25 gnd.t24 sky130_fd_pr__nfet_01v8 ad=2.73 pd=14.78 as=2.73 ps=14.78 w=7 l=1
X195 vdd.t133 a_n6972_8799.t73 CSoutput.t90 vdd.t13 sky130_fd_pr__pfet_01v8 ad=3.12 pd=16.78 as=1.32 ps=8.33 w=8 l=0.5
X196 vdd.t208 a_n2356_n452.t68 a_n2318_8322.t7 vdd.t207 sky130_fd_pr__pfet_01v8 ad=1.485 pd=9.33 as=3.51 ps=18.78 w=9 l=0.5
X197 CSoutput.t44 commonsourceibias.t98 gnd.t268 gnd.t191 sky130_fd_pr__nfet_01v8 ad=1.155 pd=7.33 as=1.155 ps=7.33 w=7 l=1
X198 gnd.t104 gnd.t101 gnd.t103 gnd.t102 sky130_fd_pr__nfet_01v8 ad=2.73 pd=14.78 as=0 ps=0 w=7 l=0.9
X199 a_n3827_n3924.t31 minus.t13 a_n2356_n452.t2 gnd.t162 sky130_fd_pr__nfet_01v8 ad=1.155 pd=7.33 as=1.155 ps=7.33 w=7 l=0.9
X200 CSoutput.t43 commonsourceibias.t99 gnd.t267 gnd.t187 sky130_fd_pr__nfet_01v8 ad=1.155 pd=7.33 as=1.155 ps=7.33 w=7 l=1
X201 vdd.t105 CSoutput.t146 output.t7 gnd.t9 sky130_fd_pr__nfet_01v8 ad=0.825 pd=5.33 as=0.825 ps=5.33 w=5 l=1
X202 CSoutput.t147 a_n2318_8322.t3 sky130_fd_pr__cap_mim_m3_1 l=12 w=12
X203 minus.t1 gnd.t98 gnd.t100 gnd.t99 sky130_fd_pr__nfet_01v8 ad=0.165 pd=1.33 as=0.165 ps=1.33 w=1 l=0.5
X204 gnd.t97 gnd.t95 plus.t4 gnd.t96 sky130_fd_pr__nfet_01v8 ad=0.165 pd=1.33 as=0.165 ps=1.33 w=1 l=0.5
X205 gnd.t292 commonsourceibias.t100 CSoutput.t55 gnd.t30 sky130_fd_pr__nfet_01v8 ad=1.155 pd=7.33 as=1.155 ps=7.33 w=7 l=1
X206 a_n3827_n3924.t38 minus.t14 a_n2356_n452.t9 gnd.t166 sky130_fd_pr__nfet_01v8 ad=2.73 pd=14.78 as=1.155 ps=7.33 w=7 l=0.9
X207 a_n2140_13878.t4 a_n2356_n452.t69 vdd.t206 vdd.t205 sky130_fd_pr__pfet_01v8 ad=3.51 pd=18.78 as=1.485 ps=9.33 w=9 l=0.5
X208 CSoutput.t9 commonsourceibias.t101 gnd.t177 gnd.t176 sky130_fd_pr__nfet_01v8 ad=1.155 pd=7.33 as=1.155 ps=7.33 w=7 l=1
X209 outputibias.t1 outputibias.t0 gnd.t298 gnd.t297 sky130_fd_pr__nfet_01v8 ad=2.34 pd=12.78 as=2.34 ps=12.78 w=6 l=2
X210 gnd.t94 gnd.t91 gnd.t93 gnd.t92 sky130_fd_pr__nfet_01v8 ad=2.73 pd=14.78 as=0 ps=0 w=7 l=1
X211 vdd.t131 a_n6972_8799.t74 CSoutput.t89 vdd.t22 sky130_fd_pr__pfet_01v8 ad=1.32 pd=8.33 as=1.32 ps=8.33 w=8 l=0.5
X212 commonsourceibias.t17 commonsourceibias.t16 gnd.t327 gnd.t193 sky130_fd_pr__nfet_01v8 ad=1.155 pd=7.33 as=2.73 ps=14.78 w=7 l=1
X213 CSoutput.t88 a_n6972_8799.t75 vdd.t132 vdd.t15 sky130_fd_pr__pfet_01v8 ad=1.32 pd=8.33 as=1.32 ps=8.33 w=8 l=0.5
X214 CSoutput.t87 a_n6972_8799.t76 vdd.t110 vdd.t17 sky130_fd_pr__pfet_01v8 ad=1.32 pd=8.33 as=1.32 ps=8.33 w=8 l=0.5
X215 CSoutput.t148 a_n2318_8322.t2 sky130_fd_pr__cap_mim_m3_1 l=12 w=12
X216 gnd.t90 gnd.t88 gnd.t89 gnd.t69 sky130_fd_pr__nfet_01v8 ad=2.73 pd=14.78 as=0 ps=0 w=7 l=1
X217 gnd.t87 gnd.t84 gnd.t86 gnd.t85 sky130_fd_pr__nfet_01v8 ad=2.34 pd=12.78 as=0 ps=0 w=6 l=2
X218 a_n2318_8322.t19 a_n2356_n452.t70 a_n6972_8799.t25 vdd.t204 sky130_fd_pr__pfet_01v8 ad=1.485 pd=9.33 as=1.485 ps=9.33 w=9 l=0.5
X219 vdd.t203 a_n2356_n452.t71 a_n2318_8322.t6 vdd.t202 sky130_fd_pr__pfet_01v8 ad=1.485 pd=9.33 as=1.485 ps=9.33 w=9 l=0.5
X220 CSoutput.t86 a_n6972_8799.t77 vdd.t18 vdd.t17 sky130_fd_pr__pfet_01v8 ad=1.32 pd=8.33 as=1.32 ps=8.33 w=8 l=0.5
X221 a_n3827_n3924.t26 diffpairibias.t26 gnd.t262 gnd.t261 sky130_fd_pr__nfet_01v8 ad=2.73 pd=14.78 as=2.73 ps=14.78 w=7 l=1
X222 CSoutput.t85 a_n6972_8799.t78 vdd.t10 vdd.t9 sky130_fd_pr__pfet_01v8 ad=1.32 pd=8.33 as=1.32 ps=8.33 w=8 l=0.5
X223 vdd.t68 vdd.t66 vdd.t67 vdd.t47 sky130_fd_pr__pfet_01v8 ad=3.12 pd=16.78 as=0 ps=0 w=8 l=0.5
X224 vdd.t180 a_n6972_8799.t79 CSoutput.t84 vdd.t154 sky130_fd_pr__pfet_01v8 ad=1.32 pd=8.33 as=1.32 ps=8.33 w=8 l=0.5
X225 a_n6972_8799.t5 plus.t20 a_n3827_n3924.t5 gnd.t152 sky130_fd_pr__nfet_01v8 ad=1.155 pd=7.33 as=1.155 ps=7.33 w=7 l=0.9
X226 a_n2356_n452.t19 minus.t15 a_n3827_n3924.t48 gnd.t165 sky130_fd_pr__nfet_01v8 ad=1.155 pd=7.33 as=1.155 ps=7.33 w=7 l=0.9
X227 gnd.t312 commonsourceibias.t102 CSoutput.t131 gnd.t36 sky130_fd_pr__nfet_01v8 ad=1.155 pd=7.33 as=1.155 ps=7.33 w=7 l=1
X228 vdd.t103 a_n6972_8799.t80 CSoutput.t83 vdd.t102 sky130_fd_pr__pfet_01v8 ad=1.32 pd=8.33 as=1.32 ps=8.33 w=8 l=0.5
X229 vdd.t233 a_n6972_8799.t81 CSoutput.t82 vdd.t146 sky130_fd_pr__pfet_01v8 ad=1.32 pd=8.33 as=1.32 ps=8.33 w=8 l=0.5
X230 a_n3827_n3924.t44 minus.t16 a_n2356_n452.t15 gnd.t161 sky130_fd_pr__nfet_01v8 ad=2.73 pd=14.78 as=1.155 ps=7.33 w=7 l=0.9
X231 CSoutput.t134 commonsourceibias.t103 gnd.t316 gnd.t244 sky130_fd_pr__nfet_01v8 ad=1.155 pd=7.33 as=1.155 ps=7.33 w=7 l=1
X232 gnd.t263 commonsourceibias.t104 CSoutput.t40 gnd.t242 sky130_fd_pr__nfet_01v8 ad=1.155 pd=7.33 as=1.155 ps=7.33 w=7 l=1
X233 output.t18 outputibias.t9 gnd.t217 gnd.t216 sky130_fd_pr__nfet_01v8 ad=2.34 pd=12.78 as=2.34 ps=12.78 w=6 l=2
X234 vdd.t65 vdd.t63 vdd.t64 vdd.t35 sky130_fd_pr__pfet_01v8 ad=3.12 pd=16.78 as=0 ps=0 w=8 l=0.5
X235 vdd.t62 vdd.t59 vdd.t61 vdd.t60 sky130_fd_pr__pfet_01v8 ad=3.51 pd=18.78 as=0 ps=0 w=9 l=0.5
X236 a_n3827_n3924.t43 minus.t17 a_n2356_n452.t14 gnd.t159 sky130_fd_pr__nfet_01v8 ad=1.155 pd=7.33 as=1.155 ps=7.33 w=7 l=0.9
X237 CSoutput.t81 a_n6972_8799.t82 vdd.t149 vdd.t137 sky130_fd_pr__pfet_01v8 ad=1.32 pd=8.33 as=1.32 ps=8.33 w=8 l=0.5
X238 a_n2140_13878.t11 a_n2356_n452.t44 a_n2356_n452.t45 vdd.t196 sky130_fd_pr__pfet_01v8 ad=1.485 pd=9.33 as=1.485 ps=9.33 w=9 l=0.5
X239 gnd.t228 commonsourceibias.t105 CSoutput.t28 gnd.t227 sky130_fd_pr__nfet_01v8 ad=1.155 pd=7.33 as=1.155 ps=7.33 w=7 l=1
X240 a_n3827_n3924.t42 minus.t18 a_n2356_n452.t13 gnd.t164 sky130_fd_pr__nfet_01v8 ad=1.155 pd=7.33 as=1.155 ps=7.33 w=7 l=0.9
X241 a_n2318_8322.t18 a_n2356_n452.t72 a_n6972_8799.t24 vdd.t201 sky130_fd_pr__pfet_01v8 ad=1.485 pd=9.33 as=1.485 ps=9.33 w=9 l=0.5
X242 CSoutput.t27 commonsourceibias.t106 gnd.t226 gnd.t201 sky130_fd_pr__nfet_01v8 ad=1.155 pd=7.33 as=1.155 ps=7.33 w=7 l=1
X243 diffpairibias.t5 diffpairibias.t4 gnd.t23 gnd.t22 sky130_fd_pr__nfet_01v8 ad=2.73 pd=14.78 as=2.73 ps=14.78 w=7 l=1
X244 gnd.t190 commonsourceibias.t107 CSoutput.t16 gnd.t189 sky130_fd_pr__nfet_01v8 ad=1.155 pd=7.33 as=1.155 ps=7.33 w=7 l=1
X245 commonsourceibias.t15 commonsourceibias.t14 gnd.t246 gnd.t201 sky130_fd_pr__nfet_01v8 ad=1.155 pd=7.33 as=1.155 ps=7.33 w=7 l=1
X246 CSoutput.t80 a_n6972_8799.t83 vdd.t160 vdd.t11 sky130_fd_pr__pfet_01v8 ad=1.32 pd=8.33 as=1.32 ps=8.33 w=8 l=0.5
X247 CSoutput.t38 commonsourceibias.t108 gnd.t251 gnd.t223 sky130_fd_pr__nfet_01v8 ad=1.155 pd=7.33 as=1.155 ps=7.33 w=7 l=1
X248 gnd.t83 gnd.t81 gnd.t82 gnd.t45 sky130_fd_pr__nfet_01v8 ad=2.73 pd=14.78 as=0 ps=0 w=7 l=1