* NGSPICE file created from opamp471.ext - technology: sky130A

.subckt opamp471 gnd CSoutput output vdd plus minus commonsourceibias outputibias
+ diffpairibias
X0 gnd.t358 commonsourceibias.t16 commonsourceibias.t17 gnd.t280 sky130_fd_pr__nfet_01v8 ad=1.155 pd=7.33 as=1.155 ps=7.33 w=7 l=1
X1 a_n2804_13878.t30 a_n2982_13878.t31 a_n2982_13878.t32 vdd.t207 sky130_fd_pr__pfet_01v8 ad=1.485 pd=9.33 as=1.485 ps=9.33 w=9 l=0.5
X2 a_n2804_13878.t5 a_n2982_13878.t68 vdd.t220 vdd.t219 sky130_fd_pr__pfet_01v8 ad=1.485 pd=9.33 as=1.485 ps=9.33 w=9 l=0.5
X3 CSoutput.t145 commonsourceibias.t64 gnd.t357 gnd.t249 sky130_fd_pr__nfet_01v8 ad=1.155 pd=7.33 as=2.73 ps=14.78 w=7 l=1
X4 vdd.t153 a_n8300_8799.t44 CSoutput.t42 vdd.t121 sky130_fd_pr__pfet_01v8 ad=1.32 pd=8.33 as=1.32 ps=8.33 w=8 l=0.5
X5 commonsourceibias.t15 commonsourceibias.t14 gnd.t356 gnd.t221 sky130_fd_pr__nfet_01v8 ad=1.155 pd=7.33 as=1.155 ps=7.33 w=7 l=1
X6 gnd.t355 commonsourceibias.t65 CSoutput.t144 gnd.t209 sky130_fd_pr__nfet_01v8 ad=1.155 pd=7.33 as=1.155 ps=7.33 w=7 l=1
X7 a_n8300_8799.t16 plus.t5 a_n3827_n3924.t34 gnd.t53 sky130_fd_pr__nfet_01v8 ad=1.155 pd=7.33 as=1.155 ps=7.33 w=7 l=0.9
X8 CSoutput.t43 a_n8300_8799.t45 vdd.t154 vdd.t2 sky130_fd_pr__pfet_01v8 ad=1.32 pd=8.33 as=3.12 ps=16.78 w=8 l=0.5
X9 gnd.t354 commonsourceibias.t12 commonsourceibias.t13 gnd.t216 sky130_fd_pr__nfet_01v8 ad=1.155 pd=7.33 as=1.155 ps=7.33 w=7 l=1
X10 a_n3827_n3924.t5 diffpairibias.t20 gnd.t28 gnd.t27 sky130_fd_pr__nfet_01v8 ad=2.73 pd=14.78 as=2.73 ps=14.78 w=7 l=1
X11 a_n3827_n3924.t33 plus.t6 a_n8300_8799.t43 gnd.t371 sky130_fd_pr__nfet_01v8 ad=2.73 pd=14.78 as=1.155 ps=7.33 w=7 l=0.9
X12 gnd.t353 commonsourceibias.t10 commonsourceibias.t11 gnd.t199 sky130_fd_pr__nfet_01v8 ad=1.155 pd=7.33 as=1.155 ps=7.33 w=7 l=1
X13 a_n2982_8322.t29 a_n2982_13878.t69 a_n8300_8799.t40 vdd.t217 sky130_fd_pr__pfet_01v8 ad=1.485 pd=9.33 as=1.485 ps=9.33 w=9 l=0.5
X14 commonsourceibias.t9 commonsourceibias.t8 gnd.t352 gnd.t238 sky130_fd_pr__nfet_01v8 ad=1.155 pd=7.33 as=1.155 ps=7.33 w=7 l=1
X15 gnd.t351 commonsourceibias.t66 CSoutput.t143 gnd.t274 sky130_fd_pr__nfet_01v8 ad=1.155 pd=7.33 as=1.155 ps=7.33 w=7 l=1
X16 CSoutput.t154 a_n8300_8799.t46 vdd.t230 vdd.t146 sky130_fd_pr__pfet_01v8 ad=1.32 pd=8.33 as=1.32 ps=8.33 w=8 l=0.5
X17 vdd.t231 a_n8300_8799.t47 CSoutput.t155 vdd.t109 sky130_fd_pr__pfet_01v8 ad=3.12 pd=16.78 as=1.32 ps=8.33 w=8 l=0.5
X18 gnd.t194 gnd.t192 gnd.t193 gnd.t112 sky130_fd_pr__nfet_01v8 ad=2.73 pd=14.78 as=0 ps=0 w=7 l=1
X19 a_n2982_13878.t67 minus.t5 a_n3827_n3924.t49 gnd.t57 sky130_fd_pr__nfet_01v8 ad=1.155 pd=7.33 as=1.155 ps=7.33 w=7 l=0.9
X20 gnd.t191 gnd.t188 gnd.t190 gnd.t189 sky130_fd_pr__nfet_01v8 ad=2.34 pd=12.78 as=0 ps=0 w=6 l=2
X21 a_n8300_8799.t41 plus.t7 a_n3827_n3924.t32 gnd.t58 sky130_fd_pr__nfet_01v8 ad=1.155 pd=7.33 as=1.155 ps=7.33 w=7 l=0.9
X22 a_n8300_8799.t32 a_n2982_13878.t70 a_n2982_8322.t28 vdd.t203 sky130_fd_pr__pfet_01v8 ad=1.485 pd=9.33 as=1.485 ps=9.33 w=9 l=0.5
X23 a_n2982_13878.t4 minus.t6 a_n3827_n3924.t7 gnd.t21 sky130_fd_pr__nfet_01v8 ad=1.155 pd=7.33 as=1.155 ps=7.33 w=7 l=0.9
X24 vdd.t112 a_n8300_8799.t48 CSoutput.t14 vdd.t111 sky130_fd_pr__pfet_01v8 ad=1.32 pd=8.33 as=1.32 ps=8.33 w=8 l=0.5
X25 vdd.t114 a_n8300_8799.t49 CSoutput.t15 vdd.t113 sky130_fd_pr__pfet_01v8 ad=1.32 pd=8.33 as=1.32 ps=8.33 w=8 l=0.5
X26 commonsourceibias.t7 commonsourceibias.t6 gnd.t350 gnd.t278 sky130_fd_pr__nfet_01v8 ad=1.155 pd=7.33 as=1.155 ps=7.33 w=7 l=1
X27 a_n8300_8799.t20 a_n2982_13878.t71 a_n2982_8322.t27 vdd.t166 sky130_fd_pr__pfet_01v8 ad=1.485 pd=9.33 as=3.51 ps=18.78 w=9 l=0.5
X28 gnd.t349 commonsourceibias.t67 CSoutput.t142 gnd.t201 sky130_fd_pr__nfet_01v8 ad=1.155 pd=7.33 as=1.155 ps=7.33 w=7 l=1
X29 CSoutput.t141 commonsourceibias.t68 gnd.t348 gnd.t227 sky130_fd_pr__nfet_01v8 ad=1.155 pd=7.33 as=1.155 ps=7.33 w=7 l=1
X30 gnd.t347 commonsourceibias.t4 commonsourceibias.t5 gnd.t274 sky130_fd_pr__nfet_01v8 ad=1.155 pd=7.33 as=1.155 ps=7.33 w=7 l=1
X31 CSoutput.t168 a_n2982_8322.t5 sky130_fd_pr__cap_mim_m3_1 l=12 w=12
X32 CSoutput.t140 commonsourceibias.t69 gnd.t346 gnd.t283 sky130_fd_pr__nfet_01v8 ad=1.155 pd=7.33 as=1.155 ps=7.33 w=7 l=1
X33 a_n3827_n3924.t31 plus.t8 a_n8300_8799.t6 gnd.t33 sky130_fd_pr__nfet_01v8 ad=1.155 pd=7.33 as=1.155 ps=7.33 w=7 l=0.9
X34 a_n3827_n3924.t44 diffpairibias.t21 gnd.t364 gnd.t363 sky130_fd_pr__nfet_01v8 ad=2.73 pd=14.78 as=2.73 ps=14.78 w=7 l=1
X35 commonsourceibias.t3 commonsourceibias.t2 gnd.t345 gnd.t203 sky130_fd_pr__nfet_01v8 ad=1.155 pd=7.33 as=1.155 ps=7.33 w=7 l=1
X36 a_n3827_n3924.t14 minus.t7 a_n2982_13878.t9 gnd.t26 sky130_fd_pr__nfet_01v8 ad=1.155 pd=7.33 as=1.155 ps=7.33 w=7 l=0.9
X37 CSoutput.t34 a_n8300_8799.t50 vdd.t143 vdd.t141 sky130_fd_pr__pfet_01v8 ad=1.32 pd=8.33 as=1.32 ps=8.33 w=8 l=0.5
X38 vdd.t144 a_n8300_8799.t51 CSoutput.t35 vdd.t111 sky130_fd_pr__pfet_01v8 ad=1.32 pd=8.33 as=1.32 ps=8.33 w=8 l=0.5
X39 CSoutput.t139 commonsourceibias.t70 gnd.t344 gnd.t283 sky130_fd_pr__nfet_01v8 ad=1.155 pd=7.33 as=1.155 ps=7.33 w=7 l=1
X40 gnd.t343 commonsourceibias.t0 commonsourceibias.t1 gnd.t267 sky130_fd_pr__nfet_01v8 ad=1.155 pd=7.33 as=1.155 ps=7.33 w=7 l=1
X41 CSoutput.t138 commonsourceibias.t71 gnd.t342 gnd.t214 sky130_fd_pr__nfet_01v8 ad=1.155 pd=7.33 as=2.73 ps=14.78 w=7 l=1
X42 a_n2804_13878.t29 a_n2982_13878.t37 a_n2982_13878.t38 vdd.t174 sky130_fd_pr__pfet_01v8 ad=1.485 pd=9.33 as=1.485 ps=9.33 w=9 l=0.5
X43 a_n2982_13878.t22 a_n2982_13878.t21 a_n2804_13878.t28 vdd.t187 sky130_fd_pr__pfet_01v8 ad=1.485 pd=9.33 as=1.485 ps=9.33 w=9 l=0.5
X44 output.t19 outputibias.t8 gnd.t32 gnd.t31 sky130_fd_pr__nfet_01v8 ad=2.34 pd=12.78 as=2.34 ps=12.78 w=6 l=2
X45 CSoutput.t169 a_n2982_8322.t4 sky130_fd_pr__cap_mim_m3_1 l=12 w=12
X46 CSoutput.t48 a_n8300_8799.t52 vdd.t163 vdd.t146 sky130_fd_pr__pfet_01v8 ad=1.32 pd=8.33 as=1.32 ps=8.33 w=8 l=0.5
X47 vdd.t98 vdd.t96 vdd.t97 vdd.t73 sky130_fd_pr__pfet_01v8 ad=3.51 pd=18.78 as=0 ps=0 w=9 l=0.5
X48 a_n3827_n3924.t30 plus.t9 a_n8300_8799.t0 gnd.t0 sky130_fd_pr__nfet_01v8 ad=1.155 pd=7.33 as=1.155 ps=7.33 w=7 l=0.9
X49 vdd.t164 a_n8300_8799.t53 CSoutput.t49 vdd.t109 sky130_fd_pr__pfet_01v8 ad=3.12 pd=16.78 as=1.32 ps=8.33 w=8 l=0.5
X50 vdd.t155 CSoutput.t170 output.t15 gnd.t60 sky130_fd_pr__nfet_01v8 ad=0.825 pd=5.33 as=0.825 ps=5.33 w=5 l=1
X51 plus.t4 gnd.t185 gnd.t187 gnd.t186 sky130_fd_pr__nfet_01v8 ad=0.165 pd=1.33 as=0.165 ps=1.33 w=1 l=0.5
X52 diffpairibias.t19 diffpairibias.t18 gnd.t5 gnd.t4 sky130_fd_pr__nfet_01v8 ad=2.73 pd=14.78 as=2.73 ps=14.78 w=7 l=1
X53 CSoutput.t137 commonsourceibias.t72 gnd.t332 gnd.t247 sky130_fd_pr__nfet_01v8 ad=1.155 pd=7.33 as=1.155 ps=7.33 w=7 l=1
X54 a_n3827_n3924.t29 plus.t10 a_n8300_8799.t2 gnd.t11 sky130_fd_pr__nfet_01v8 ad=1.155 pd=7.33 as=1.155 ps=7.33 w=7 l=0.9
X55 gnd.t184 gnd.t182 gnd.t183 gnd.t126 sky130_fd_pr__nfet_01v8 ad=2.73 pd=14.78 as=0 ps=0 w=7 l=0.9
X56 a_n2982_13878.t62 a_n2982_13878.t61 a_n2804_13878.t27 vdd.t202 sky130_fd_pr__pfet_01v8 ad=1.485 pd=9.33 as=1.485 ps=9.33 w=9 l=0.5
X57 CSoutput.t136 commonsourceibias.t73 gnd.t341 gnd.t292 sky130_fd_pr__nfet_01v8 ad=1.155 pd=7.33 as=1.155 ps=7.33 w=7 l=1
X58 CSoutput.t135 commonsourceibias.t74 gnd.t340 gnd.t264 sky130_fd_pr__nfet_01v8 ad=1.155 pd=7.33 as=1.155 ps=7.33 w=7 l=1
X59 a_n8300_8799.t27 a_n2982_13878.t72 a_n2982_8322.t26 vdd.t197 sky130_fd_pr__pfet_01v8 ad=1.485 pd=9.33 as=1.485 ps=9.33 w=9 l=0.5
X60 CSoutput.t160 a_n8300_8799.t54 vdd.t236 vdd.t119 sky130_fd_pr__pfet_01v8 ad=1.32 pd=8.33 as=1.32 ps=8.33 w=8 l=0.5
X61 commonsourceibias.t55 commonsourceibias.t54 gnd.t339 gnd.t249 sky130_fd_pr__nfet_01v8 ad=1.155 pd=7.33 as=2.73 ps=14.78 w=7 l=1
X62 a_n2982_13878.t54 a_n2982_13878.t53 a_n2804_13878.t26 vdd.t218 sky130_fd_pr__pfet_01v8 ad=1.485 pd=9.33 as=1.485 ps=9.33 w=9 l=0.5
X63 gnd.t181 gnd.t179 gnd.t180 gnd.t76 sky130_fd_pr__nfet_01v8 ad=2.73 pd=14.78 as=0 ps=0 w=7 l=1
X64 vdd.t237 a_n8300_8799.t55 CSoutput.t161 vdd.t20 sky130_fd_pr__pfet_01v8 ad=1.32 pd=8.33 as=1.32 ps=8.33 w=8 l=0.5
X65 vdd.t242 a_n8300_8799.t56 CSoutput.t166 vdd.t113 sky130_fd_pr__pfet_01v8 ad=1.32 pd=8.33 as=1.32 ps=8.33 w=8 l=0.5
X66 a_n8300_8799.t22 a_n2982_13878.t73 a_n2982_8322.t25 vdd.t195 sky130_fd_pr__pfet_01v8 ad=1.485 pd=9.33 as=1.485 ps=9.33 w=9 l=0.5
X67 diffpairibias.t17 diffpairibias.t16 gnd.t70 gnd.t69 sky130_fd_pr__nfet_01v8 ad=2.73 pd=14.78 as=2.73 ps=14.78 w=7 l=1
X68 CSoutput.t167 a_n8300_8799.t57 vdd.t243 vdd.t14 sky130_fd_pr__pfet_01v8 ad=1.32 pd=8.33 as=1.32 ps=8.33 w=8 l=0.5
X69 gnd.t178 gnd.t176 gnd.t177 gnd.t76 sky130_fd_pr__nfet_01v8 ad=2.73 pd=14.78 as=0 ps=0 w=7 l=1
X70 a_n8300_8799.t39 a_n2982_13878.t74 a_n2982_8322.t24 vdd.t210 sky130_fd_pr__pfet_01v8 ad=1.485 pd=9.33 as=1.485 ps=9.33 w=9 l=0.5
X71 a_n2982_8322.t23 a_n2982_13878.t75 a_n8300_8799.t19 vdd.t218 sky130_fd_pr__pfet_01v8 ad=1.485 pd=9.33 as=1.485 ps=9.33 w=9 l=0.5
X72 CSoutput.t134 commonsourceibias.t75 gnd.t338 gnd.t264 sky130_fd_pr__nfet_01v8 ad=1.155 pd=7.33 as=1.155 ps=7.33 w=7 l=1
X73 vdd.t95 vdd.t93 vdd.t94 vdd.t60 sky130_fd_pr__pfet_01v8 ad=3.12 pd=16.78 as=0 ps=0 w=8 l=0.5
X74 CSoutput.t28 a_n8300_8799.t58 vdd.t135 vdd.t131 sky130_fd_pr__pfet_01v8 ad=1.32 pd=8.33 as=1.32 ps=8.33 w=8 l=0.5
X75 a_n3827_n3924.t46 minus.t8 a_n2982_13878.t64 gnd.t56 sky130_fd_pr__nfet_01v8 ad=1.155 pd=7.33 as=1.155 ps=7.33 w=7 l=0.9
X76 a_n3827_n3924.t28 plus.t11 a_n8300_8799.t13 gnd.t2 sky130_fd_pr__nfet_01v8 ad=2.73 pd=14.78 as=1.155 ps=7.33 w=7 l=0.9
X77 gnd.t337 commonsourceibias.t76 CSoutput.t133 gnd.t243 sky130_fd_pr__nfet_01v8 ad=1.155 pd=7.33 as=1.155 ps=7.33 w=7 l=1
X78 gnd.t175 gnd.t172 gnd.t174 gnd.t173 sky130_fd_pr__nfet_01v8 ad=2.34 pd=12.78 as=0 ps=0 w=6 l=2
X79 CSoutput.t132 commonsourceibias.t77 gnd.t336 gnd.t261 sky130_fd_pr__nfet_01v8 ad=1.155 pd=7.33 as=1.155 ps=7.33 w=7 l=1
X80 gnd.t171 gnd.t169 gnd.t170 gnd.t88 sky130_fd_pr__nfet_01v8 ad=2.73 pd=14.78 as=0 ps=0 w=7 l=0.9
X81 a_n8300_8799.t7 plus.t12 a_n3827_n3924.t27 gnd.t36 sky130_fd_pr__nfet_01v8 ad=1.155 pd=7.33 as=1.155 ps=7.33 w=7 l=0.9
X82 gnd.t335 commonsourceibias.t78 CSoutput.t131 gnd.t223 sky130_fd_pr__nfet_01v8 ad=2.73 pd=14.78 as=1.155 ps=7.33 w=7 l=1
X83 gnd.t168 gnd.t166 minus.t4 gnd.t167 sky130_fd_pr__nfet_01v8 ad=0.165 pd=1.33 as=0.39 ps=2.78 w=1 l=0.5
X84 gnd.t165 gnd.t163 gnd.t164 gnd.t112 sky130_fd_pr__nfet_01v8 ad=2.73 pd=14.78 as=0 ps=0 w=7 l=1
X85 a_n3827_n3924.t4 diffpairibias.t22 gnd.t18 gnd.t17 sky130_fd_pr__nfet_01v8 ad=2.73 pd=14.78 as=2.73 ps=14.78 w=7 l=1
X86 vdd.t136 a_n8300_8799.t59 CSoutput.t29 vdd.t127 sky130_fd_pr__pfet_01v8 ad=1.32 pd=8.33 as=1.32 ps=8.33 w=8 l=0.5
X87 vdd.t150 a_n8300_8799.t60 CSoutput.t40 vdd.t129 sky130_fd_pr__pfet_01v8 ad=1.32 pd=8.33 as=1.32 ps=8.33 w=8 l=0.5
X88 CSoutput.t130 commonsourceibias.t79 gnd.t334 gnd.t207 sky130_fd_pr__nfet_01v8 ad=1.155 pd=7.33 as=1.155 ps=7.33 w=7 l=1
X89 a_n2982_13878.t60 a_n2982_13878.t59 a_n2804_13878.t25 vdd.t217 sky130_fd_pr__pfet_01v8 ad=1.485 pd=9.33 as=1.485 ps=9.33 w=9 l=0.5
X90 a_n3827_n3924.t26 plus.t13 a_n8300_8799.t9 gnd.t37 sky130_fd_pr__nfet_01v8 ad=1.155 pd=7.33 as=1.155 ps=7.33 w=7 l=0.9
X91 vdd.t152 a_n8300_8799.t61 CSoutput.t41 vdd.t151 sky130_fd_pr__pfet_01v8 ad=1.32 pd=8.33 as=1.32 ps=8.33 w=8 l=0.5
X92 a_n8300_8799.t26 a_n2982_13878.t76 a_n2982_8322.t22 vdd.t206 sky130_fd_pr__pfet_01v8 ad=1.485 pd=9.33 as=1.485 ps=9.33 w=9 l=0.5
X93 a_n2982_13878.t28 a_n2982_13878.t27 a_n2804_13878.t24 vdd.t169 sky130_fd_pr__pfet_01v8 ad=3.51 pd=18.78 as=1.485 ps=9.33 w=9 l=0.5
X94 outputibias.t7 outputibias.t6 gnd.t25 gnd.t24 sky130_fd_pr__nfet_01v8 ad=2.34 pd=12.78 as=2.34 ps=12.78 w=6 l=2
X95 commonsourceibias.t53 commonsourceibias.t52 gnd.t333 gnd.t227 sky130_fd_pr__nfet_01v8 ad=1.155 pd=7.33 as=1.155 ps=7.33 w=7 l=1
X96 gnd.t331 commonsourceibias.t80 CSoutput.t129 gnd.t241 sky130_fd_pr__nfet_01v8 ad=1.155 pd=7.33 as=1.155 ps=7.33 w=7 l=1
X97 gnd.t162 gnd.t160 gnd.t161 gnd.t80 sky130_fd_pr__nfet_01v8 ad=2.73 pd=14.78 as=0 ps=0 w=7 l=1
X98 CSoutput.t128 commonsourceibias.t81 gnd.t330 gnd.t221 sky130_fd_pr__nfet_01v8 ad=1.155 pd=7.33 as=1.155 ps=7.33 w=7 l=1
X99 gnd.t329 commonsourceibias.t50 commonsourceibias.t51 gnd.t225 sky130_fd_pr__nfet_01v8 ad=1.155 pd=7.33 as=1.155 ps=7.33 w=7 l=1
X100 CSoutput.t127 commonsourceibias.t82 gnd.t328 gnd.t283 sky130_fd_pr__nfet_01v8 ad=1.155 pd=7.33 as=1.155 ps=7.33 w=7 l=1
X101 diffpairibias.t15 diffpairibias.t14 gnd.t16 gnd.t15 sky130_fd_pr__nfet_01v8 ad=2.73 pd=14.78 as=2.73 ps=14.78 w=7 l=1
X102 vdd.t92 vdd.t90 vdd.t91 vdd.t80 sky130_fd_pr__pfet_01v8 ad=3.51 pd=18.78 as=0 ps=0 w=9 l=0.5
X103 CSoutput.t6 a_n8300_8799.t62 vdd.t15 vdd.t14 sky130_fd_pr__pfet_01v8 ad=1.32 pd=8.33 as=1.32 ps=8.33 w=8 l=0.5
X104 vdd.t89 vdd.t86 vdd.t88 vdd.t87 sky130_fd_pr__pfet_01v8 ad=3.51 pd=18.78 as=0 ps=0 w=9 l=0.5
X105 gnd.t327 commonsourceibias.t83 CSoutput.t126 gnd.t231 sky130_fd_pr__nfet_01v8 ad=2.73 pd=14.78 as=1.155 ps=7.33 w=7 l=1
X106 a_n2804_13878.t23 a_n2982_13878.t51 a_n2982_13878.t52 vdd.t179 sky130_fd_pr__pfet_01v8 ad=1.485 pd=9.33 as=3.51 ps=18.78 w=9 l=0.5
X107 CSoutput.t7 a_n8300_8799.t63 vdd.t17 vdd.t16 sky130_fd_pr__pfet_01v8 ad=1.32 pd=8.33 as=1.32 ps=8.33 w=8 l=0.5
X108 vdd.t130 a_n8300_8799.t64 CSoutput.t24 vdd.t129 sky130_fd_pr__pfet_01v8 ad=1.32 pd=8.33 as=1.32 ps=8.33 w=8 l=0.5
X109 vdd.t216 a_n2982_13878.t77 a_n2982_8322.t37 vdd.t215 sky130_fd_pr__pfet_01v8 ad=1.485 pd=9.33 as=1.485 ps=9.33 w=9 l=0.5
X110 gnd.t326 commonsourceibias.t48 commonsourceibias.t49 gnd.t218 sky130_fd_pr__nfet_01v8 ad=1.155 pd=7.33 as=1.155 ps=7.33 w=7 l=1
X111 a_n2982_13878.t56 a_n2982_13878.t55 a_n2804_13878.t22 vdd.t177 sky130_fd_pr__pfet_01v8 ad=1.485 pd=9.33 as=1.485 ps=9.33 w=9 l=0.5
X112 CSoutput.t125 commonsourceibias.t84 gnd.t325 gnd.t234 sky130_fd_pr__nfet_01v8 ad=1.155 pd=7.33 as=1.155 ps=7.33 w=7 l=1
X113 vdd.t85 vdd.t83 vdd.t84 vdd.t60 sky130_fd_pr__pfet_01v8 ad=3.12 pd=16.78 as=0 ps=0 w=8 l=0.5
X114 output.t14 CSoutput.t171 vdd.t156 gnd.t61 sky130_fd_pr__nfet_01v8 ad=0.825 pd=5.33 as=0.825 ps=5.33 w=5 l=1
X115 CSoutput.t124 commonsourceibias.t85 gnd.t320 gnd.t278 sky130_fd_pr__nfet_01v8 ad=1.155 pd=7.33 as=1.155 ps=7.33 w=7 l=1
X116 a_n2982_8322.t36 a_n2982_13878.t78 vdd.t214 vdd.t213 sky130_fd_pr__pfet_01v8 ad=1.485 pd=9.33 as=1.485 ps=9.33 w=9 l=0.5
X117 a_n3827_n3924.t41 diffpairibias.t23 gnd.t198 gnd.t197 sky130_fd_pr__nfet_01v8 ad=2.73 pd=14.78 as=2.73 ps=14.78 w=7 l=1
X118 CSoutput.t25 a_n8300_8799.t65 vdd.t132 vdd.t131 sky130_fd_pr__pfet_01v8 ad=1.32 pd=8.33 as=1.32 ps=8.33 w=8 l=0.5
X119 gnd.t324 commonsourceibias.t86 CSoutput.t123 gnd.t280 sky130_fd_pr__nfet_01v8 ad=1.155 pd=7.33 as=1.155 ps=7.33 w=7 l=1
X120 commonsourceibias.t47 commonsourceibias.t46 gnd.t323 gnd.t214 sky130_fd_pr__nfet_01v8 ad=1.155 pd=7.33 as=2.73 ps=14.78 w=7 l=1
X121 vdd.t212 a_n2982_13878.t79 a_n2804_13878.t3 vdd.t211 sky130_fd_pr__pfet_01v8 ad=1.485 pd=9.33 as=1.485 ps=9.33 w=9 l=0.5
X122 gnd.t319 commonsourceibias.t87 CSoutput.t122 gnd.t257 sky130_fd_pr__nfet_01v8 ad=1.155 pd=7.33 as=1.155 ps=7.33 w=7 l=1
X123 vdd.t82 vdd.t79 vdd.t81 vdd.t80 sky130_fd_pr__pfet_01v8 ad=3.51 pd=18.78 as=0 ps=0 w=9 l=0.5
X124 gnd.t322 commonsourceibias.t22 commonsourceibias.t23 gnd.t201 sky130_fd_pr__nfet_01v8 ad=1.155 pd=7.33 as=1.155 ps=7.33 w=7 l=1
X125 output.t13 CSoutput.t172 vdd.t157 gnd.t62 sky130_fd_pr__nfet_01v8 ad=0.825 pd=5.33 as=0.825 ps=5.33 w=5 l=1
X126 CSoutput.t121 commonsourceibias.t88 gnd.t321 gnd.t247 sky130_fd_pr__nfet_01v8 ad=1.155 pd=7.33 as=1.155 ps=7.33 w=7 l=1
X127 gnd.t318 commonsourceibias.t89 CSoutput.t120 gnd.t209 sky130_fd_pr__nfet_01v8 ad=1.155 pd=7.33 as=1.155 ps=7.33 w=7 l=1
X128 a_n2804_13878.t21 a_n2982_13878.t47 a_n2982_13878.t48 vdd.t210 sky130_fd_pr__pfet_01v8 ad=1.485 pd=9.33 as=1.485 ps=9.33 w=9 l=0.5
X129 vdd.t234 a_n8300_8799.t66 CSoutput.t158 vdd.t129 sky130_fd_pr__pfet_01v8 ad=1.32 pd=8.33 as=1.32 ps=8.33 w=8 l=0.5
X130 plus.t3 gnd.t157 gnd.t159 gnd.t158 sky130_fd_pr__nfet_01v8 ad=0.165 pd=1.33 as=0.165 ps=1.33 w=1 l=0.5
X131 vdd.t235 a_n8300_8799.t67 CSoutput.t159 vdd.t151 sky130_fd_pr__pfet_01v8 ad=1.32 pd=8.33 as=1.32 ps=8.33 w=8 l=0.5
X132 a_n2982_8322.t21 a_n2982_13878.t80 a_n8300_8799.t35 vdd.t196 sky130_fd_pr__pfet_01v8 ad=1.485 pd=9.33 as=1.485 ps=9.33 w=9 l=0.5
X133 CSoutput.t119 commonsourceibias.t90 gnd.t317 gnd.t261 sky130_fd_pr__nfet_01v8 ad=1.155 pd=7.33 as=1.155 ps=7.33 w=7 l=1
X134 gnd.t156 gnd.t154 minus.t3 gnd.t155 sky130_fd_pr__nfet_01v8 ad=0.165 pd=1.33 as=0.165 ps=1.33 w=1 l=0.5
X135 a_n8300_8799.t1 plus.t14 a_n3827_n3924.t25 gnd.t1 sky130_fd_pr__nfet_01v8 ad=1.155 pd=7.33 as=2.73 ps=14.78 w=7 l=0.9
X136 vdd.t78 vdd.t76 vdd.t77 vdd.t42 sky130_fd_pr__pfet_01v8 ad=3.12 pd=16.78 as=0 ps=0 w=8 l=0.5
X137 commonsourceibias.t21 commonsourceibias.t20 gnd.t316 gnd.t205 sky130_fd_pr__nfet_01v8 ad=1.155 pd=7.33 as=1.155 ps=7.33 w=7 l=1
X138 a_n2982_13878.t65 minus.t9 a_n3827_n3924.t47 gnd.t46 sky130_fd_pr__nfet_01v8 ad=1.155 pd=7.33 as=2.73 ps=14.78 w=7 l=0.9
X139 vdd.t75 vdd.t72 vdd.t74 vdd.t73 sky130_fd_pr__pfet_01v8 ad=3.51 pd=18.78 as=0 ps=0 w=9 l=0.5
X140 a_n2982_8322.t35 a_n2982_13878.t81 vdd.t209 vdd.t208 sky130_fd_pr__pfet_01v8 ad=3.51 pd=18.78 as=1.485 ps=9.33 w=9 l=0.5
X141 gnd.t315 commonsourceibias.t91 CSoutput.t118 gnd.t229 sky130_fd_pr__nfet_01v8 ad=1.155 pd=7.33 as=1.155 ps=7.33 w=7 l=1
X142 a_n8300_8799.t38 a_n2982_13878.t82 a_n2982_8322.t20 vdd.t176 sky130_fd_pr__pfet_01v8 ad=1.485 pd=9.33 as=1.485 ps=9.33 w=9 l=0.5
X143 a_n8300_8799.t15 plus.t15 a_n3827_n3924.t24 gnd.t66 sky130_fd_pr__nfet_01v8 ad=1.155 pd=7.33 as=1.155 ps=7.33 w=7 l=0.9
X144 gnd.t153 gnd.t151 gnd.t152 gnd.t98 sky130_fd_pr__nfet_01v8 ad=2.73 pd=14.78 as=0 ps=0 w=7 l=1
X145 CSoutput.t164 a_n8300_8799.t68 vdd.t240 vdd.t7 sky130_fd_pr__pfet_01v8 ad=1.32 pd=8.33 as=1.32 ps=8.33 w=8 l=0.5
X146 diffpairibias.t13 diffpairibias.t12 gnd.t55 gnd.t54 sky130_fd_pr__nfet_01v8 ad=2.73 pd=14.78 as=2.73 ps=14.78 w=7 l=1
X147 vdd.t241 a_n8300_8799.t69 CSoutput.t165 vdd.t113 sky130_fd_pr__pfet_01v8 ad=1.32 pd=8.33 as=1.32 ps=8.33 w=8 l=0.5
X148 a_n2982_13878.t20 a_n2982_13878.t19 a_n2804_13878.t20 vdd.t188 sky130_fd_pr__pfet_01v8 ad=1.485 pd=9.33 as=1.485 ps=9.33 w=9 l=0.5
X149 a_n8300_8799.t29 a_n2982_13878.t83 a_n2982_8322.t19 vdd.t207 sky130_fd_pr__pfet_01v8 ad=1.485 pd=9.33 as=1.485 ps=9.33 w=9 l=0.5
X150 gnd.t314 commonsourceibias.t18 commonsourceibias.t19 gnd.t209 sky130_fd_pr__nfet_01v8 ad=1.155 pd=7.33 as=1.155 ps=7.33 w=7 l=1
X151 a_n2804_13878.t19 a_n2982_13878.t25 a_n2982_13878.t26 vdd.t206 sky130_fd_pr__pfet_01v8 ad=1.485 pd=9.33 as=1.485 ps=9.33 w=9 l=0.5
X152 gnd.t313 commonsourceibias.t92 CSoutput.t117 gnd.t236 sky130_fd_pr__nfet_01v8 ad=1.155 pd=7.33 as=1.155 ps=7.33 w=7 l=1
X153 output.t12 CSoutput.t173 vdd.t123 gnd.t47 sky130_fd_pr__nfet_01v8 ad=0.825 pd=5.33 as=0.825 ps=5.33 w=5 l=1
X154 gnd.t312 commonsourceibias.t93 CSoutput.t116 gnd.t218 sky130_fd_pr__nfet_01v8 ad=1.155 pd=7.33 as=1.155 ps=7.33 w=7 l=1
X155 vdd.t71 vdd.t69 vdd.t70 vdd.t28 sky130_fd_pr__pfet_01v8 ad=3.51 pd=18.78 as=0 ps=0 w=9 l=0.5
X156 gnd.t150 gnd.t148 minus.t2 gnd.t149 sky130_fd_pr__nfet_01v8 ad=0.39 pd=2.78 as=0.165 ps=1.33 w=1 l=0.5
X157 CSoutput.t20 a_n8300_8799.t70 vdd.t120 vdd.t119 sky130_fd_pr__pfet_01v8 ad=1.32 pd=8.33 as=1.32 ps=8.33 w=8 l=0.5
X158 vdd.t205 a_n2982_13878.t84 a_n2982_8322.t34 vdd.t204 sky130_fd_pr__pfet_01v8 ad=1.485 pd=9.33 as=3.51 ps=18.78 w=9 l=0.5
X159 a_n2804_13878.t18 a_n2982_13878.t35 a_n2982_13878.t36 vdd.t203 sky130_fd_pr__pfet_01v8 ad=1.485 pd=9.33 as=1.485 ps=9.33 w=9 l=0.5
X160 gnd.t147 gnd.t145 gnd.t146 gnd.t98 sky130_fd_pr__nfet_01v8 ad=2.73 pd=14.78 as=0 ps=0 w=7 l=1
X161 vdd.t122 a_n8300_8799.t71 CSoutput.t21 vdd.t121 sky130_fd_pr__pfet_01v8 ad=1.32 pd=8.33 as=1.32 ps=8.33 w=8 l=0.5
X162 output.t18 outputibias.t9 gnd.t64 gnd.t63 sky130_fd_pr__nfet_01v8 ad=2.34 pd=12.78 as=2.34 ps=12.78 w=6 l=2
X163 a_n2982_13878.t8 minus.t10 a_n3827_n3924.t13 gnd.t53 sky130_fd_pr__nfet_01v8 ad=1.155 pd=7.33 as=1.155 ps=7.33 w=7 l=0.9
X164 a_n3827_n3924.t23 plus.t16 a_n8300_8799.t4 gnd.t12 sky130_fd_pr__nfet_01v8 ad=1.155 pd=7.33 as=1.155 ps=7.33 w=7 l=0.9
X165 a_n2982_13878.t42 a_n2982_13878.t41 a_n2804_13878.t17 vdd.t173 sky130_fd_pr__pfet_01v8 ad=1.485 pd=9.33 as=1.485 ps=9.33 w=9 l=0.5
X166 gnd.t144 gnd.t141 gnd.t143 gnd.t142 sky130_fd_pr__nfet_01v8 ad=1.95 pd=10.78 as=0 ps=0 w=5 l=1
X167 gnd.t140 gnd.t138 gnd.t139 gnd.t112 sky130_fd_pr__nfet_01v8 ad=2.73 pd=14.78 as=0 ps=0 w=7 l=1
X168 outputibias.t5 outputibias.t4 gnd.t51 gnd.t50 sky130_fd_pr__nfet_01v8 ad=2.34 pd=12.78 as=2.34 ps=12.78 w=6 l=2
X169 vdd.t124 CSoutput.t174 output.t11 gnd.t48 sky130_fd_pr__nfet_01v8 ad=0.825 pd=5.33 as=0.825 ps=5.33 w=5 l=1
X170 CSoutput.t115 commonsourceibias.t94 gnd.t311 gnd.t207 sky130_fd_pr__nfet_01v8 ad=1.155 pd=7.33 as=1.155 ps=7.33 w=7 l=1
X171 gnd.t310 commonsourceibias.t95 CSoutput.t114 gnd.t243 sky130_fd_pr__nfet_01v8 ad=1.155 pd=7.33 as=1.155 ps=7.33 w=7 l=1
X172 gnd.t309 commonsourceibias.t96 CSoutput.t113 gnd.t241 sky130_fd_pr__nfet_01v8 ad=1.155 pd=7.33 as=1.155 ps=7.33 w=7 l=1
X173 vdd.t126 a_n8300_8799.t72 CSoutput.t22 vdd.t12 sky130_fd_pr__pfet_01v8 ad=1.32 pd=8.33 as=1.32 ps=8.33 w=8 l=0.5
X174 a_n3827_n3924.t45 diffpairibias.t24 gnd.t366 gnd.t365 sky130_fd_pr__nfet_01v8 ad=2.73 pd=14.78 as=2.73 ps=14.78 w=7 l=1
X175 a_n3827_n3924.t40 diffpairibias.t25 gnd.t74 gnd.t73 sky130_fd_pr__nfet_01v8 ad=2.73 pd=14.78 as=2.73 ps=14.78 w=7 l=1
X176 outputibias.t3 outputibias.t2 gnd.t370 gnd.t369 sky130_fd_pr__nfet_01v8 ad=2.34 pd=12.78 as=2.34 ps=12.78 w=6 l=2
X177 a_n8300_8799.t11 plus.t17 a_n3827_n3924.t22 gnd.t52 sky130_fd_pr__nfet_01v8 ad=1.155 pd=7.33 as=1.155 ps=7.33 w=7 l=0.9
X178 vdd.t128 a_n8300_8799.t73 CSoutput.t23 vdd.t127 sky130_fd_pr__pfet_01v8 ad=1.32 pd=8.33 as=1.32 ps=8.33 w=8 l=0.5
X179 gnd.t137 gnd.t135 gnd.t136 gnd.t80 sky130_fd_pr__nfet_01v8 ad=2.73 pd=14.78 as=0 ps=0 w=7 l=1
X180 vdd.t68 vdd.t66 vdd.t67 vdd.t42 sky130_fd_pr__pfet_01v8 ad=3.12 pd=16.78 as=0 ps=0 w=8 l=0.5
X181 a_n8300_8799.t3 plus.t18 a_n3827_n3924.t21 gnd.t21 sky130_fd_pr__nfet_01v8 ad=1.155 pd=7.33 as=1.155 ps=7.33 w=7 l=0.9
X182 a_n2804_13878.t16 a_n2982_13878.t33 a_n2982_13878.t34 vdd.t178 sky130_fd_pr__pfet_01v8 ad=1.485 pd=9.33 as=1.485 ps=9.33 w=9 l=0.5
X183 gnd.t134 gnd.t132 gnd.t133 gnd.t80 sky130_fd_pr__nfet_01v8 ad=2.73 pd=14.78 as=0 ps=0 w=7 l=1
X184 a_n2982_8322.t18 a_n2982_13878.t85 a_n8300_8799.t31 vdd.t202 sky130_fd_pr__pfet_01v8 ad=1.485 pd=9.33 as=1.485 ps=9.33 w=9 l=0.5
X185 CSoutput.t152 a_n8300_8799.t74 vdd.t228 vdd.t137 sky130_fd_pr__pfet_01v8 ad=1.32 pd=8.33 as=1.32 ps=8.33 w=8 l=0.5
X186 vdd.t125 CSoutput.t175 output.t10 gnd.t49 sky130_fd_pr__nfet_01v8 ad=0.825 pd=5.33 as=0.825 ps=5.33 w=5 l=1
X187 CSoutput.t112 commonsourceibias.t97 gnd.t308 gnd.t292 sky130_fd_pr__nfet_01v8 ad=1.155 pd=7.33 as=1.155 ps=7.33 w=7 l=1
X188 output.t9 CSoutput.t176 vdd.t99 gnd.t19 sky130_fd_pr__nfet_01v8 ad=0.825 pd=5.33 as=0.825 ps=5.33 w=5 l=1
X189 gnd.t131 gnd.t129 gnd.t130 gnd.t76 sky130_fd_pr__nfet_01v8 ad=2.73 pd=14.78 as=0 ps=0 w=7 l=1
X190 gnd.t307 commonsourceibias.t98 CSoutput.t111 gnd.t257 sky130_fd_pr__nfet_01v8 ad=1.155 pd=7.33 as=1.155 ps=7.33 w=7 l=1
X191 diffpairibias.t11 diffpairibias.t10 gnd.t68 gnd.t67 sky130_fd_pr__nfet_01v8 ad=2.73 pd=14.78 as=2.73 ps=14.78 w=7 l=1
X192 a_n2804_13878.t6 a_n2982_13878.t86 vdd.t201 vdd.t200 sky130_fd_pr__pfet_01v8 ad=1.485 pd=9.33 as=1.485 ps=9.33 w=9 l=0.5
X193 a_n2982_13878.t12 minus.t11 a_n3827_n3924.t37 gnd.t59 sky130_fd_pr__nfet_01v8 ad=1.155 pd=7.33 as=1.155 ps=7.33 w=7 l=0.9
X194 vdd.t199 a_n2982_13878.t87 a_n2804_13878.t0 vdd.t198 sky130_fd_pr__pfet_01v8 ad=1.485 pd=9.33 as=1.485 ps=9.33 w=9 l=0.5
X195 CSoutput.t153 a_n8300_8799.t75 vdd.t229 vdd.t119 sky130_fd_pr__pfet_01v8 ad=1.32 pd=8.33 as=1.32 ps=8.33 w=8 l=0.5
X196 gnd.t306 commonsourceibias.t99 CSoutput.t110 gnd.t274 sky130_fd_pr__nfet_01v8 ad=1.155 pd=7.33 as=1.155 ps=7.33 w=7 l=1
X197 CSoutput.t109 commonsourceibias.t100 gnd.t305 gnd.t214 sky130_fd_pr__nfet_01v8 ad=1.155 pd=7.33 as=2.73 ps=14.78 w=7 l=1
X198 a_n3827_n3924.t20 plus.t19 a_n8300_8799.t5 gnd.t26 sky130_fd_pr__nfet_01v8 ad=1.155 pd=7.33 as=1.155 ps=7.33 w=7 l=0.9
X199 vdd.t224 a_n8300_8799.t76 CSoutput.t148 vdd.t121 sky130_fd_pr__pfet_01v8 ad=1.32 pd=8.33 as=1.32 ps=8.33 w=8 l=0.5
X200 output.t8 CSoutput.t177 vdd.t100 gnd.t20 sky130_fd_pr__nfet_01v8 ad=0.825 pd=5.33 as=0.825 ps=5.33 w=5 l=1
X201 vdd.t225 a_n8300_8799.t77 CSoutput.t149 vdd.t151 sky130_fd_pr__pfet_01v8 ad=1.32 pd=8.33 as=1.32 ps=8.33 w=8 l=0.5
X202 CSoutput.t4 a_n8300_8799.t78 vdd.t11 vdd.t9 sky130_fd_pr__pfet_01v8 ad=1.32 pd=8.33 as=1.32 ps=8.33 w=8 l=0.5
X203 a_n2804_13878.t15 a_n2982_13878.t15 a_n2982_13878.t16 vdd.t197 sky130_fd_pr__pfet_01v8 ad=1.485 pd=9.33 as=1.485 ps=9.33 w=9 l=0.5
X204 diffpairibias.t9 diffpairibias.t8 gnd.t360 gnd.t359 sky130_fd_pr__nfet_01v8 ad=2.73 pd=14.78 as=2.73 ps=14.78 w=7 l=1
X205 gnd.t304 commonsourceibias.t101 CSoutput.t108 gnd.t236 sky130_fd_pr__nfet_01v8 ad=1.155 pd=7.33 as=1.155 ps=7.33 w=7 l=1
X206 vdd.t13 a_n8300_8799.t79 CSoutput.t5 vdd.t12 sky130_fd_pr__pfet_01v8 ad=1.32 pd=8.33 as=1.32 ps=8.33 w=8 l=0.5
X207 commonsourceibias.t63 commonsourceibias.t62 gnd.t303 gnd.t292 sky130_fd_pr__nfet_01v8 ad=1.155 pd=7.33 as=1.155 ps=7.33 w=7 l=1
X208 a_n3827_n3924.t1 minus.t12 a_n2982_13878.t1 gnd.t3 sky130_fd_pr__nfet_01v8 ad=1.155 pd=7.33 as=1.155 ps=7.33 w=7 l=0.9
X209 a_n2982_8322.t17 a_n2982_13878.t88 a_n8300_8799.t18 vdd.t165 sky130_fd_pr__pfet_01v8 ad=1.485 pd=9.33 as=1.485 ps=9.33 w=9 l=0.5
X210 a_n2982_13878.t30 a_n2982_13878.t29 a_n2804_13878.t14 vdd.t196 sky130_fd_pr__pfet_01v8 ad=1.485 pd=9.33 as=1.485 ps=9.33 w=9 l=0.5
X211 CSoutput.t12 a_n8300_8799.t80 vdd.t108 vdd.t107 sky130_fd_pr__pfet_01v8 ad=1.32 pd=8.33 as=3.12 ps=16.78 w=8 l=0.5
X212 outputibias.t1 outputibias.t0 gnd.t35 gnd.t34 sky130_fd_pr__nfet_01v8 ad=2.34 pd=12.78 as=2.34 ps=12.78 w=6 l=2
X213 diffpairibias.t7 diffpairibias.t6 gnd.t72 gnd.t71 sky130_fd_pr__nfet_01v8 ad=2.73 pd=14.78 as=2.73 ps=14.78 w=7 l=1
X214 vdd.t110 a_n8300_8799.t81 CSoutput.t13 vdd.t109 sky130_fd_pr__pfet_01v8 ad=3.12 pd=16.78 as=1.32 ps=8.33 w=8 l=0.5
X215 a_n2804_13878.t13 a_n2982_13878.t39 a_n2982_13878.t40 vdd.t195 sky130_fd_pr__pfet_01v8 ad=1.485 pd=9.33 as=1.485 ps=9.33 w=9 l=0.5
X216 vdd.t65 vdd.t63 vdd.t64 vdd.t46 sky130_fd_pr__pfet_01v8 ad=3.12 pd=16.78 as=0 ps=0 w=8 l=0.5
X217 vdd.t194 a_n2982_13878.t89 a_n2982_8322.t33 vdd.t193 sky130_fd_pr__pfet_01v8 ad=1.485 pd=9.33 as=3.51 ps=18.78 w=9 l=0.5
X218 vdd.t140 a_n8300_8799.t82 CSoutput.t32 vdd.t127 sky130_fd_pr__pfet_01v8 ad=1.32 pd=8.33 as=1.32 ps=8.33 w=8 l=0.5
X219 output.t17 outputibias.t10 gnd.t368 gnd.t367 sky130_fd_pr__nfet_01v8 ad=2.34 pd=12.78 as=2.34 ps=12.78 w=6 l=2
X220 a_n3827_n3924.t38 minus.t13 a_n2982_13878.t13 gnd.t11 sky130_fd_pr__nfet_01v8 ad=1.155 pd=7.33 as=1.155 ps=7.33 w=7 l=0.9
X221 gnd.t128 gnd.t125 gnd.t127 gnd.t126 sky130_fd_pr__nfet_01v8 ad=2.73 pd=14.78 as=0 ps=0 w=7 l=0.9
X222 CSoutput.t107 commonsourceibias.t102 gnd.t302 gnd.t211 sky130_fd_pr__nfet_01v8 ad=1.155 pd=7.33 as=1.155 ps=7.33 w=7 l=1
X223 CSoutput.t178 a_n2982_8322.t3 sky130_fd_pr__cap_mim_m3_1 l=12 w=12
X224 gnd.t124 gnd.t122 plus.t2 gnd.t123 sky130_fd_pr__nfet_01v8 ad=0.165 pd=1.33 as=0.165 ps=1.33 w=1 l=0.5
X225 commonsourceibias.t61 commonsourceibias.t60 gnd.t301 gnd.t264 sky130_fd_pr__nfet_01v8 ad=1.155 pd=7.33 as=1.155 ps=7.33 w=7 l=1
X226 a_n3827_n3924.t48 minus.t14 a_n2982_13878.t66 gnd.t371 sky130_fd_pr__nfet_01v8 ad=2.73 pd=14.78 as=1.155 ps=7.33 w=7 l=0.9
X227 minus.t1 gnd.t119 gnd.t121 gnd.t120 sky130_fd_pr__nfet_01v8 ad=0.165 pd=1.33 as=0.165 ps=1.33 w=1 l=0.5
X228 CSoutput.t33 a_n8300_8799.t83 vdd.t142 vdd.t141 sky130_fd_pr__pfet_01v8 ad=1.32 pd=8.33 as=1.32 ps=8.33 w=8 l=0.5
X229 gnd.t118 gnd.t115 gnd.t117 gnd.t116 sky130_fd_pr__nfet_01v8 ad=2.73 pd=14.78 as=0 ps=0 w=7 l=1
X230 a_n2804_13878.t2 a_n2982_13878.t90 vdd.t192 vdd.t191 sky130_fd_pr__pfet_01v8 ad=3.51 pd=18.78 as=1.485 ps=9.33 w=9 l=0.5
X231 vdd.t62 vdd.t59 vdd.t61 vdd.t60 sky130_fd_pr__pfet_01v8 ad=3.12 pd=16.78 as=0 ps=0 w=8 l=0.5
X232 vdd.t58 vdd.t56 vdd.t57 vdd.t46 sky130_fd_pr__pfet_01v8 ad=3.12 pd=16.78 as=0 ps=0 w=8 l=0.5
X233 vdd.t18 CSoutput.t179 output.t7 gnd.t13 sky130_fd_pr__nfet_01v8 ad=0.825 pd=5.33 as=0.825 ps=5.33 w=5 l=1
X234 CSoutput.t106 commonsourceibias.t103 gnd.t300 gnd.t211 sky130_fd_pr__nfet_01v8 ad=1.155 pd=7.33 as=1.155 ps=7.33 w=7 l=1
X235 gnd.t299 commonsourceibias.t104 CSoutput.t105 gnd.t280 sky130_fd_pr__nfet_01v8 ad=1.155 pd=7.33 as=1.155 ps=7.33 w=7 l=1
X236 CSoutput.t180 a_n2982_8322.t2 sky130_fd_pr__cap_mim_m3_1 l=12 w=12
X237 CSoutput.t26 a_n8300_8799.t84 vdd.t133 vdd.t9 sky130_fd_pr__pfet_01v8 ad=1.32 pd=8.33 as=1.32 ps=8.33 w=8 l=0.5
X238 gnd.t298 commonsourceibias.t58 commonsourceibias.t59 gnd.t223 sky130_fd_pr__nfet_01v8 ad=2.73 pd=14.78 as=1.155 ps=7.33 w=7 l=1
X239 gnd.t297 commonsourceibias.t105 CSoutput.t104 gnd.t243 sky130_fd_pr__nfet_01v8 ad=1.155 pd=7.33 as=1.155 ps=7.33 w=7 l=1
X240 CSoutput.t103 commonsourceibias.t106 gnd.t296 gnd.t221 sky130_fd_pr__nfet_01v8 ad=1.155 pd=7.33 as=1.155 ps=7.33 w=7 l=1
X241 gnd.t114 gnd.t111 gnd.t113 gnd.t112 sky130_fd_pr__nfet_01v8 ad=2.73 pd=14.78 as=0 ps=0 w=7 l=1
X242 CSoutput.t102 commonsourceibias.t107 gnd.t295 gnd.t278 sky130_fd_pr__nfet_01v8 ad=1.155 pd=7.33 as=1.155 ps=7.33 w=7 l=1
X243 gnd.t294 commonsourceibias.t108 CSoutput.t101 gnd.t218 sky130_fd_pr__nfet_01v8 ad=1.155 pd=7.33 as=1.155 ps=7.33 w=7 l=1
X244 CSoutput.t100 commonsourceibias.t109 gnd.t293 gnd.t292 sky130_fd_pr__nfet_01v8 ad=1.155 pd=7.33 as=1.155 ps=7.33 w=7 l=1
X245 vdd.t55 vdd.t53 vdd.t54 vdd.t32 sky130_fd_pr__pfet_01v8 ad=3.12 pd=16.78 as=0 ps=0 w=8 l=0.5
X246 vdd.t134 a_n8300_8799.t85 CSoutput.t27 vdd.t0 sky130_fd_pr__pfet_01v8 ad=3.12 pd=16.78 as=1.32 ps=8.33 w=8 l=0.5
X247 a_n3827_n3924.t6 diffpairibias.t26 gnd.t30 gnd.t29 sky130_fd_pr__nfet_01v8 ad=2.73 pd=14.78 as=2.73 ps=14.78 w=7 l=1