* NGSPICE file created from opamp.ext - technology: sky130A

.subckt opamp output vdd plus minus commonsourceibias outputibias diffpairibias gnd CSoutput
Cload output gnd 0.0p
X0 gnd.t177 gnd.t174 gnd.t176 gnd.t175 sky130_fd_pr__nfet_01v8 ad=2.34 pd=12.78 as=0 ps=0 w=6 l=2
X1 commonsourceibias.t47 commonsourceibias.t46 gnd.t271 gnd.t212 sky130_fd_pr__nfet_01v8 ad=1.155 pd=7.33 as=2.73 ps=14.78 w=7 l=1
X2 gnd.t182 commonsourceibias.t48 CSoutput.t67 gnd.t38 sky130_fd_pr__nfet_01v8 ad=1.155 pd=7.33 as=1.155 ps=7.33 w=7 l=1
X3 gnd.t173 gnd.t171 gnd.t172 gnd.t159 sky130_fd_pr__nfet_01v8 ad=2.73 pd=14.78 as=0 ps=0 w=7 l=1
X4 vdd.t160 a_n5644_8799.t36 CSoutput.t1 vdd.t107 sky130_fd_pr__pfet_01v8_lvt ad=1.32 pd=8.33 as=1.32 ps=8.33 w=8 l=0.5
X5 a_n1986_8322.t11 a_n2848_n452.t48 vdd.t187 vdd.t186 sky130_fd_pr__pfet_01v8_lvt ad=1.485 pd=9.33 as=1.485 ps=9.33 w=9 l=0.5
X6 a_n1808_13878.t19 a_n2848_n452.t26 a_n2848_n452.t27 vdd.t4 sky130_fd_pr__pfet_01v8_lvt ad=1.485 pd=9.33 as=3.51 ps=18.78 w=9 l=0.5
X7 a_n5644_8799.t24 plus.t5 a_n3106_n452.t40 gnd.t242 sky130_fd_pr__nfet_01v8 ad=1.155 pd=7.33 as=1.155 ps=7.33 w=7 l=0.9
X8 output.t19 outputibias.t8 gnd.t64 gnd.t63 sky130_fd_pr__nfet_01v8 ad=2.34 pd=12.78 as=2.34 ps=12.78 w=6 l=2
X9 gnd.t263 commonsourceibias.t49 CSoutput.t66 gnd.t51 sky130_fd_pr__nfet_01v8 ad=1.155 pd=7.33 as=1.155 ps=7.33 w=7 l=1
X10 a_n3106_n452.t39 plus.t6 a_n5644_8799.t2 gnd.t19 sky130_fd_pr__nfet_01v8 ad=1.155 pd=7.33 as=1.155 ps=7.33 w=7 l=0.9
X11 vdd.t167 CSoutput.t96 output.t15 gnd.t221 sky130_fd_pr__nfet_01v8_lvt ad=0.825 pd=5.33 as=1.95 ps=10.78 w=5 l=1
X12 a_n2848_n452.t41 a_n2848_n452.t40 a_n1808_13878.t18 vdd.t11 sky130_fd_pr__pfet_01v8_lvt ad=1.485 pd=9.33 as=1.485 ps=9.33 w=9 l=0.5
X13 a_n1808_13878.t17 a_n2848_n452.t28 a_n2848_n452.t29 vdd.t0 sky130_fd_pr__pfet_01v8_lvt ad=1.485 pd=9.33 as=1.485 ps=9.33 w=9 l=0.5
X14 vdd.t96 vdd.t94 vdd.t95 vdd.t69 sky130_fd_pr__pfet_01v8_lvt ad=3.51 pd=18.78 as=0 ps=0 w=9 l=0.5
X15 a_n1808_13878.t7 a_n2848_n452.t49 vdd.t189 vdd.t188 sky130_fd_pr__pfet_01v8_lvt ad=1.485 pd=9.33 as=1.485 ps=9.33 w=9 l=0.5
X16 gnd.t194 commonsourceibias.t44 commonsourceibias.t45 gnd.t193 sky130_fd_pr__nfet_01v8 ad=1.155 pd=7.33 as=1.155 ps=7.33 w=7 l=1
X17 vdd.t165 CSoutput.t97 output.t14 gnd.t222 sky130_fd_pr__nfet_01v8_lvt ad=0.825 pd=5.33 as=0.825 ps=5.33 w=5 l=1
X18 CSoutput.t90 a_n5644_8799.t37 vdd.t159 vdd.t103 sky130_fd_pr__pfet_01v8_lvt ad=1.32 pd=8.33 as=1.32 ps=8.33 w=8 l=0.5
X19 gnd.t291 commonsourceibias.t50 CSoutput.t65 gnd.t193 sky130_fd_pr__nfet_01v8 ad=1.155 pd=7.33 as=1.155 ps=7.33 w=7 l=1
X20 outputibias.t7 outputibias.t6 gnd.t23 gnd.t22 sky130_fd_pr__nfet_01v8 ad=2.34 pd=12.78 as=2.34 ps=12.78 w=6 l=2
X21 vdd.t93 vdd.t91 vdd.t92 vdd.t44 sky130_fd_pr__pfet_01v8_lvt ad=3.12 pd=16.78 as=0 ps=0 w=8 l=0.5
X22 a_n1986_8322.t23 a_n2848_n452.t50 a_n5644_8799.t15 vdd.t177 sky130_fd_pr__pfet_01v8_lvt ad=1.485 pd=9.33 as=1.485 ps=9.33 w=9 l=0.5
X23 a_n2848_n452.t8 minus.t5 a_n3106_n452.t8 gnd.t37 sky130_fd_pr__nfet_01v8 ad=1.155 pd=7.33 as=1.155 ps=7.33 w=7 l=0.9
X24 a_n5644_8799.t22 plus.t7 a_n3106_n452.t38 gnd.t235 sky130_fd_pr__nfet_01v8 ad=1.155 pd=7.33 as=1.155 ps=7.33 w=7 l=0.9
X25 gnd.t219 commonsourceibias.t42 commonsourceibias.t43 gnd.t218 sky130_fd_pr__nfet_01v8 ad=1.155 pd=7.33 as=1.155 ps=7.33 w=7 l=1
X26 plus.t4 gnd.t168 gnd.t170 gnd.t169 sky130_fd_pr__nfet_01v8 ad=0.165 pd=1.33 as=0.165 ps=1.33 w=1 l=0.5
X27 a_n2848_n452.t7 minus.t6 a_n3106_n452.t7 gnd.t36 sky130_fd_pr__nfet_01v8 ad=1.155 pd=7.33 as=1.155 ps=7.33 w=7 l=0.9
X28 CSoutput.t64 commonsourceibias.t51 gnd.t284 gnd.t44 sky130_fd_pr__nfet_01v8 ad=1.155 pd=7.33 as=1.155 ps=7.33 w=7 l=1
X29 CSoutput.t98 a_n1986_8322.t0 sky130_fd_pr__cap_mim_m3_1 l=12 w=12
X30 gnd.t41 commonsourceibias.t40 commonsourceibias.t41 gnd.t40 sky130_fd_pr__nfet_01v8 ad=1.155 pd=7.33 as=1.155 ps=7.33 w=7 l=1
X31 CSoutput.t68 a_n5644_8799.t38 vdd.t158 vdd.t116 sky130_fd_pr__pfet_01v8_lvt ad=1.32 pd=8.33 as=3.12 ps=16.78 w=8 l=0.5
X32 vdd.t157 a_n5644_8799.t39 CSoutput.t10 vdd.t134 sky130_fd_pr__pfet_01v8_lvt ad=3.12 pd=16.78 as=1.32 ps=8.33 w=8 l=0.5
X33 a_n3106_n452.t37 plus.t8 a_n5644_8799.t13 gnd.t69 sky130_fd_pr__nfet_01v8 ad=1.155 pd=7.33 as=1.155 ps=7.33 w=7 l=0.9
X34 a_n5644_8799.t16 a_n2848_n452.t51 a_n1986_8322.t22 vdd.t4 sky130_fd_pr__pfet_01v8_lvt ad=1.485 pd=9.33 as=3.51 ps=18.78 w=9 l=0.5
X35 CSoutput.t14 a_n5644_8799.t40 vdd.t156 vdd.t97 sky130_fd_pr__pfet_01v8_lvt ad=1.32 pd=8.33 as=3.12 ps=16.78 w=8 l=0.5
X36 vdd.t155 a_n5644_8799.t41 CSoutput.t0 vdd.t150 sky130_fd_pr__pfet_01v8_lvt ad=1.32 pd=8.33 as=1.32 ps=8.33 w=8 l=0.5
X37 a_n3106_n452.t2 minus.t7 a_n2848_n452.t2 gnd.t5 sky130_fd_pr__nfet_01v8 ad=1.155 pd=7.33 as=1.155 ps=7.33 w=7 l=0.9
X38 CSoutput.t63 commonsourceibias.t52 gnd.t286 gnd.t232 sky130_fd_pr__nfet_01v8 ad=1.155 pd=7.33 as=1.155 ps=7.33 w=7 l=1
X39 a_n3106_n452.t11 diffpairibias.t16 gnd.t59 gnd.t58 sky130_fd_pr__nfet_01v8 ad=2.73 pd=14.78 as=2.73 ps=14.78 w=7 l=1
X40 output.t13 CSoutput.t99 vdd.t175 gnd.t187 sky130_fd_pr__nfet_01v8_lvt ad=0.825 pd=5.33 as=0.825 ps=5.33 w=5 l=1
X41 vdd.t164 CSoutput.t100 output.t12 gnd.t188 sky130_fd_pr__nfet_01v8_lvt ad=0.825 pd=5.33 as=0.825 ps=5.33 w=5 l=1
X42 CSoutput.t62 commonsourceibias.t53 gnd.t289 gnd.t34 sky130_fd_pr__nfet_01v8 ad=1.155 pd=7.33 as=1.155 ps=7.33 w=7 l=1
X43 CSoutput.t94 a_n5644_8799.t42 vdd.t154 vdd.t112 sky130_fd_pr__pfet_01v8_lvt ad=1.32 pd=8.33 as=1.32 ps=8.33 w=8 l=0.5
X44 vdd.t90 vdd.t88 vdd.t89 vdd.t22 sky130_fd_pr__pfet_01v8_lvt ad=3.12 pd=16.78 as=0 ps=0 w=8 l=0.5
X45 CSoutput.t61 commonsourceibias.t54 gnd.t257 gnd.t212 sky130_fd_pr__nfet_01v8 ad=1.155 pd=7.33 as=2.73 ps=14.78 w=7 l=1
X46 gnd.t167 gnd.t165 gnd.t166 gnd.t117 sky130_fd_pr__nfet_01v8 ad=2.73 pd=14.78 as=0 ps=0 w=7 l=0.9
X47 a_n3106_n452.t36 plus.t9 a_n5644_8799.t14 gnd.t28 sky130_fd_pr__nfet_01v8 ad=1.155 pd=7.33 as=1.155 ps=7.33 w=7 l=0.9
X48 a_n1808_13878.t16 a_n2848_n452.t36 a_n2848_n452.t37 vdd.t7 sky130_fd_pr__pfet_01v8_lvt ad=1.485 pd=9.33 as=3.51 ps=18.78 w=9 l=0.5
X49 vdd.t153 a_n5644_8799.t43 CSoutput.t84 vdd.t150 sky130_fd_pr__pfet_01v8_lvt ad=1.32 pd=8.33 as=1.32 ps=8.33 w=8 l=0.5
X50 a_n3106_n452.t35 plus.t10 a_n5644_8799.t0 gnd.t0 sky130_fd_pr__nfet_01v8 ad=1.155 pd=7.33 as=1.155 ps=7.33 w=7 l=0.9
X51 a_n3106_n452.t4 minus.t8 a_n2848_n452.t4 gnd.t11 sky130_fd_pr__nfet_01v8 ad=2.73 pd=14.78 as=1.155 ps=7.33 w=7 l=0.9
X52 diffpairibias.t15 diffpairibias.t14 gnd.t241 gnd.t240 sky130_fd_pr__nfet_01v8 ad=2.73 pd=14.78 as=2.73 ps=14.78 w=7 l=1
X53 a_n2848_n452.t35 a_n2848_n452.t34 a_n1808_13878.t15 vdd.t10 sky130_fd_pr__pfet_01v8_lvt ad=1.485 pd=9.33 as=1.485 ps=9.33 w=9 l=0.5
X54 CSoutput.t6 a_n5644_8799.t44 vdd.t152 vdd.t128 sky130_fd_pr__pfet_01v8_lvt ad=1.32 pd=8.33 as=1.32 ps=8.33 w=8 l=0.5
X55 gnd.t164 gnd.t162 gnd.t163 gnd.t159 sky130_fd_pr__nfet_01v8 ad=2.73 pd=14.78 as=0 ps=0 w=7 l=1
X56 vdd.t87 vdd.t85 vdd.t86 vdd.t54 sky130_fd_pr__pfet_01v8_lvt ad=3.51 pd=18.78 as=0 ps=0 w=9 l=0.5
X57 gnd.t52 commonsourceibias.t55 CSoutput.t60 gnd.t51 sky130_fd_pr__nfet_01v8 ad=1.155 pd=7.33 as=1.155 ps=7.33 w=7 l=1
X58 gnd.t249 commonsourceibias.t56 CSoutput.t59 gnd.t207 sky130_fd_pr__nfet_01v8 ad=1.155 pd=7.33 as=1.155 ps=7.33 w=7 l=1
X59 diffpairibias.t13 diffpairibias.t12 gnd.t57 gnd.t56 sky130_fd_pr__nfet_01v8 ad=2.73 pd=14.78 as=2.73 ps=14.78 w=7 l=1
X60 vdd.t84 vdd.t82 vdd.t83 vdd.t33 sky130_fd_pr__pfet_01v8_lvt ad=3.12 pd=16.78 as=0 ps=0 w=8 l=0.5
X61 gnd.t50 commonsourceibias.t57 CSoutput.t58 gnd.t40 sky130_fd_pr__nfet_01v8 ad=1.155 pd=7.33 as=1.155 ps=7.33 w=7 l=1
X62 commonsourceibias.t39 commonsourceibias.t38 gnd.t272 gnd.t44 sky130_fd_pr__nfet_01v8 ad=1.155 pd=7.33 as=1.155 ps=7.33 w=7 l=1
X63 vdd.t151 a_n5644_8799.t45 CSoutput.t76 vdd.t150 sky130_fd_pr__pfet_01v8_lvt ad=1.32 pd=8.33 as=1.32 ps=8.33 w=8 l=0.5
X64 vdd.t171 CSoutput.t101 output.t11 gnd.t189 sky130_fd_pr__nfet_01v8_lvt ad=0.825 pd=5.33 as=0.825 ps=5.33 w=5 l=1
X65 vdd.t149 a_n5644_8799.t46 CSoutput.t75 vdd.t125 sky130_fd_pr__pfet_01v8_lvt ad=1.32 pd=8.33 as=1.32 ps=8.33 w=8 l=0.5
X66 CSoutput.t9 a_n5644_8799.t47 vdd.t148 vdd.t97 sky130_fd_pr__pfet_01v8_lvt ad=1.32 pd=8.33 as=3.12 ps=16.78 w=8 l=0.5
X67 a_n3106_n452.t1 minus.t9 a_n2848_n452.t1 gnd.t4 sky130_fd_pr__nfet_01v8 ad=1.155 pd=7.33 as=1.155 ps=7.33 w=7 l=0.9
X68 a_n3106_n452.t34 plus.t11 a_n5644_8799.t18 gnd.t200 sky130_fd_pr__nfet_01v8 ad=2.73 pd=14.78 as=1.155 ps=7.33 w=7 l=0.9
X69 vdd.t147 a_n5644_8799.t48 CSoutput.t72 vdd.t101 sky130_fd_pr__pfet_01v8_lvt ad=1.32 pd=8.33 as=1.32 ps=8.33 w=8 l=0.5
X70 gnd.t179 commonsourceibias.t58 CSoutput.t57 gnd.t178 sky130_fd_pr__nfet_01v8 ad=1.155 pd=7.33 as=1.155 ps=7.33 w=7 l=1
X71 a_n5644_8799.t29 plus.t12 a_n3106_n452.t33 gnd.t266 sky130_fd_pr__nfet_01v8 ad=1.155 pd=7.33 as=1.155 ps=7.33 w=7 l=0.9
X72 commonsourceibias.t37 commonsourceibias.t36 gnd.t214 gnd.t30 sky130_fd_pr__nfet_01v8 ad=1.155 pd=7.33 as=1.155 ps=7.33 w=7 l=1
X73 CSoutput.t79 a_n5644_8799.t49 vdd.t146 vdd.t112 sky130_fd_pr__pfet_01v8_lvt ad=1.32 pd=8.33 as=1.32 ps=8.33 w=8 l=0.5
X74 CSoutput.t74 a_n5644_8799.t50 vdd.t145 vdd.t138 sky130_fd_pr__pfet_01v8_lvt ad=1.32 pd=8.33 as=1.32 ps=8.33 w=8 l=0.5
X75 a_n3106_n452.t16 diffpairibias.t17 gnd.t206 gnd.t205 sky130_fd_pr__nfet_01v8 ad=2.73 pd=14.78 as=2.73 ps=14.78 w=7 l=1
X76 gnd.t211 commonsourceibias.t34 commonsourceibias.t35 gnd.t178 sky130_fd_pr__nfet_01v8 ad=1.155 pd=7.33 as=1.155 ps=7.33 w=7 l=1
X77 CSoutput.t3 a_n5644_8799.t51 vdd.t144 vdd.t138 sky130_fd_pr__pfet_01v8_lvt ad=1.32 pd=8.33 as=1.32 ps=8.33 w=8 l=0.5
X78 a_n3106_n452.t32 plus.t13 a_n5644_8799.t1 gnd.t14 sky130_fd_pr__nfet_01v8 ad=1.155 pd=7.33 as=1.155 ps=7.33 w=7 l=0.9
X79 vdd.t143 a_n5644_8799.t52 CSoutput.t11 vdd.t136 sky130_fd_pr__pfet_01v8_lvt ad=1.32 pd=8.33 as=1.32 ps=8.33 w=8 l=0.5
X80 gnd.t186 commonsourceibias.t32 commonsourceibias.t33 gnd.t53 sky130_fd_pr__nfet_01v8 ad=2.73 pd=14.78 as=1.155 ps=7.33 w=7 l=1
X81 commonsourceibias.t31 commonsourceibias.t30 gnd.t35 gnd.t34 sky130_fd_pr__nfet_01v8 ad=1.155 pd=7.33 as=1.155 ps=7.33 w=7 l=1
X82 a_n2848_n452.t21 a_n2848_n452.t20 a_n1808_13878.t14 vdd.t177 sky130_fd_pr__pfet_01v8_lvt ad=1.485 pd=9.33 as=1.485 ps=9.33 w=9 l=0.5
X83 outputibias.t5 outputibias.t4 gnd.t25 gnd.t24 sky130_fd_pr__nfet_01v8 ad=2.34 pd=12.78 as=2.34 ps=12.78 w=6 l=2
X84 a_n2848_n452.t23 a_n2848_n452.t22 a_n1808_13878.t13 vdd.t181 sky130_fd_pr__pfet_01v8_lvt ad=3.51 pd=18.78 as=1.485 ps=9.33 w=9 l=0.5
X85 vdd.t142 a_n5644_8799.t53 CSoutput.t87 vdd.t134 sky130_fd_pr__pfet_01v8_lvt ad=3.12 pd=16.78 as=1.32 ps=8.33 w=8 l=0.5
X86 a_n5644_8799.t10 a_n2848_n452.t52 a_n1986_8322.t21 vdd.t14 sky130_fd_pr__pfet_01v8_lvt ad=1.485 pd=9.33 as=1.485 ps=9.33 w=9 l=0.5
X87 CSoutput.t56 commonsourceibias.t59 gnd.t233 gnd.t232 sky130_fd_pr__nfet_01v8 ad=1.155 pd=7.33 as=1.155 ps=7.33 w=7 l=1
X88 vdd.t141 a_n5644_8799.t54 CSoutput.t77 vdd.t136 sky130_fd_pr__pfet_01v8_lvt ad=1.32 pd=8.33 as=1.32 ps=8.33 w=8 l=0.5
X89 a_n2848_n452.t44 minus.t10 a_n3106_n452.t52 gnd.t267 sky130_fd_pr__nfet_01v8 ad=1.155 pd=7.33 as=2.73 ps=14.78 w=7 l=0.9
X90 CSoutput.t55 commonsourceibias.t60 gnd.t290 gnd.t7 sky130_fd_pr__nfet_01v8 ad=1.155 pd=7.33 as=1.155 ps=7.33 w=7 l=1
X91 gnd.t285 commonsourceibias.t61 CSoutput.t54 gnd.t53 sky130_fd_pr__nfet_01v8 ad=2.73 pd=14.78 as=1.155 ps=7.33 w=7 l=1
X92 gnd.t161 gnd.t158 gnd.t160 gnd.t159 sky130_fd_pr__nfet_01v8 ad=2.73 pd=14.78 as=0 ps=0 w=7 l=1
X93 commonsourceibias.t29 commonsourceibias.t28 gnd.t238 gnd.t17 sky130_fd_pr__nfet_01v8 ad=1.155 pd=7.33 as=1.155 ps=7.33 w=7 l=1
X94 vdd.t81 vdd.t79 vdd.t80 vdd.t33 sky130_fd_pr__pfet_01v8_lvt ad=3.12 pd=16.78 as=0 ps=0 w=8 l=0.5
X95 CSoutput.t53 commonsourceibias.t62 gnd.t213 gnd.t212 sky130_fd_pr__nfet_01v8 ad=1.155 pd=7.33 as=2.73 ps=14.78 w=7 l=1
X96 CSoutput.t102 a_n1986_8322.t1 sky130_fd_pr__cap_mim_m3_1 l=12 w=12
X97 outputibias.t3 outputibias.t2 gnd.t288 gnd.t287 sky130_fd_pr__nfet_01v8 ad=2.34 pd=12.78 as=2.34 ps=12.78 w=6 l=2
X98 vdd.t140 a_n5644_8799.t55 CSoutput.t86 vdd.t125 sky130_fd_pr__pfet_01v8_lvt ad=1.32 pd=8.33 as=1.32 ps=8.33 w=8 l=0.5
X99 vdd.t78 vdd.t76 vdd.t77 vdd.t62 sky130_fd_pr__pfet_01v8_lvt ad=3.51 pd=18.78 as=0 ps=0 w=9 l=0.5
X100 vdd.t75 vdd.t72 vdd.t74 vdd.t73 sky130_fd_pr__pfet_01v8_lvt ad=3.51 pd=18.78 as=0 ps=0 w=9 l=0.5
X101 a_n3106_n452.t10 diffpairibias.t18 gnd.t49 gnd.t48 sky130_fd_pr__nfet_01v8 ad=2.73 pd=14.78 as=2.73 ps=14.78 w=7 l=1
X102 vdd.t71 vdd.t68 vdd.t70 vdd.t69 sky130_fd_pr__pfet_01v8_lvt ad=3.51 pd=18.78 as=0 ps=0 w=9 l=0.5
X103 gnd.t157 gnd.t155 minus.t4 gnd.t156 sky130_fd_pr__nfet_01v8 ad=0.39 pd=2.78 as=0.165 ps=1.33 w=1 l=0.5
X104 gnd.t154 gnd.t152 gnd.t153 gnd.t99 sky130_fd_pr__nfet_01v8 ad=2.73 pd=14.78 as=0 ps=0 w=7 l=0.9
X105 commonsourceibias.t27 commonsourceibias.t26 gnd.t8 gnd.t7 sky130_fd_pr__nfet_01v8 ad=1.155 pd=7.33 as=1.155 ps=7.33 w=7 l=1
X106 vdd.t20 a_n2848_n452.t53 a_n1986_8322.t10 vdd.t19 sky130_fd_pr__pfet_01v8_lvt ad=1.485 pd=9.33 as=1.485 ps=9.33 w=9 l=0.5
X107 vdd.t67 vdd.t65 vdd.t66 vdd.t58 sky130_fd_pr__pfet_01v8_lvt ad=3.51 pd=18.78 as=0 ps=0 w=9 l=0.5
X108 CSoutput.t95 a_n5644_8799.t56 vdd.t139 vdd.t138 sky130_fd_pr__pfet_01v8_lvt ad=1.32 pd=8.33 as=1.32 ps=8.33 w=8 l=0.5
X109 a_n1986_8322.t9 a_n2848_n452.t54 vdd.t16 vdd.t15 sky130_fd_pr__pfet_01v8_lvt ad=1.485 pd=9.33 as=1.485 ps=9.33 w=9 l=0.5
X110 vdd.t137 a_n5644_8799.t57 CSoutput.t73 vdd.t136 sky130_fd_pr__pfet_01v8_lvt ad=1.32 pd=8.33 as=1.32 ps=8.33 w=8 l=0.5
X111 gnd.t244 commonsourceibias.t24 commonsourceibias.t25 gnd.t51 sky130_fd_pr__nfet_01v8 ad=1.155 pd=7.33 as=1.155 ps=7.33 w=7 l=1
X112 gnd.t208 commonsourceibias.t63 CSoutput.t52 gnd.t207 sky130_fd_pr__nfet_01v8 ad=1.155 pd=7.33 as=1.155 ps=7.33 w=7 l=1
X113 vdd.t18 a_n2848_n452.t55 a_n1808_13878.t6 vdd.t17 sky130_fd_pr__pfet_01v8_lvt ad=1.485 pd=9.33 as=1.485 ps=9.33 w=9 l=0.5
X114 gnd.t151 gnd.t149 plus.t3 gnd.t150 sky130_fd_pr__nfet_01v8 ad=0.39 pd=2.78 as=0.165 ps=1.33 w=1 l=0.5
X115 gnd.t260 commonsourceibias.t64 CSoutput.t51 gnd.t40 sky130_fd_pr__nfet_01v8 ad=1.155 pd=7.33 as=1.155 ps=7.33 w=7 l=1
X116 a_n2848_n452.t3 minus.t11 a_n3106_n452.t3 gnd.t6 sky130_fd_pr__nfet_01v8 ad=1.155 pd=7.33 as=1.155 ps=7.33 w=7 l=0.9
X117 a_n5644_8799.t3 plus.t14 a_n3106_n452.t31 gnd.t20 sky130_fd_pr__nfet_01v8 ad=1.155 pd=7.33 as=2.73 ps=14.78 w=7 l=0.9
X118 gnd.t181 commonsourceibias.t65 CSoutput.t50 gnd.t180 sky130_fd_pr__nfet_01v8 ad=2.73 pd=14.78 as=1.155 ps=7.33 w=7 l=1
X119 vdd.t64 vdd.t61 vdd.t63 vdd.t62 sky130_fd_pr__pfet_01v8_lvt ad=3.51 pd=18.78 as=0 ps=0 w=9 l=0.5
X120 a_n5644_8799.t9 plus.t15 a_n3106_n452.t30 gnd.t29 sky130_fd_pr__nfet_01v8 ad=1.155 pd=7.33 as=1.155 ps=7.33 w=7 l=0.9
X121 a_n2848_n452.t42 minus.t12 a_n3106_n452.t50 gnd.t262 sky130_fd_pr__nfet_01v8 ad=1.155 pd=7.33 as=1.155 ps=7.33 w=7 l=0.9
X122 diffpairibias.t11 diffpairibias.t10 gnd.t2 gnd.t1 sky130_fd_pr__nfet_01v8 ad=2.73 pd=14.78 as=2.73 ps=14.78 w=7 l=1
X123 vdd.t161 CSoutput.t103 output.t10 gnd.t223 sky130_fd_pr__nfet_01v8_lvt ad=0.825 pd=5.33 as=0.825 ps=5.33 w=5 l=1
X124 vdd.t60 vdd.t57 vdd.t59 vdd.t58 sky130_fd_pr__pfet_01v8_lvt ad=3.51 pd=18.78 as=0 ps=0 w=9 l=0.5
X125 vdd.t135 a_n5644_8799.t58 CSoutput.t5 vdd.t134 sky130_fd_pr__pfet_01v8_lvt ad=3.12 pd=16.78 as=1.32 ps=8.33 w=8 l=0.5
X126 gnd.t268 commonsourceibias.t66 CSoutput.t49 gnd.t246 sky130_fd_pr__nfet_01v8 ad=1.155 pd=7.33 as=1.155 ps=7.33 w=7 l=1
X127 outputibias.t1 outputibias.t0 gnd.t191 gnd.t190 sky130_fd_pr__nfet_01v8 ad=2.34 pd=12.78 as=2.34 ps=12.78 w=6 l=2
X128 a_n5644_8799.t5 a_n2848_n452.t56 a_n1986_8322.t20 vdd.t1 sky130_fd_pr__pfet_01v8_lvt ad=1.485 pd=9.33 as=1.485 ps=9.33 w=9 l=0.5
X129 a_n1986_8322.t8 a_n2848_n452.t57 vdd.t3 vdd.t2 sky130_fd_pr__pfet_01v8_lvt ad=3.51 pd=18.78 as=1.485 ps=9.33 w=9 l=0.5
X130 vdd.t56 vdd.t53 vdd.t55 vdd.t54 sky130_fd_pr__pfet_01v8_lvt ad=3.51 pd=18.78 as=0 ps=0 w=9 l=0.5
X131 gnd.t192 commonsourceibias.t67 CSoutput.t48 gnd.t178 sky130_fd_pr__nfet_01v8 ad=1.155 pd=7.33 as=1.155 ps=7.33 w=7 l=1
X132 a_n2848_n452.t31 a_n2848_n452.t30 a_n1808_13878.t12 vdd.t193 sky130_fd_pr__pfet_01v8_lvt ad=1.485 pd=9.33 as=1.485 ps=9.33 w=9 l=0.5
X133 a_n3106_n452.t47 minus.t13 a_n2848_n452.t17 gnd.t248 sky130_fd_pr__nfet_01v8 ad=1.155 pd=7.33 as=1.155 ps=7.33 w=7 l=0.9
X134 CSoutput.t104 a_n1986_8322.t3 sky130_fd_pr__cap_mim_m3_1 l=12 w=12
X135 a_n5644_8799.t30 a_n2848_n452.t58 a_n1986_8322.t19 vdd.t0 sky130_fd_pr__pfet_01v8_lvt ad=1.485 pd=9.33 as=1.485 ps=9.33 w=9 l=0.5
X136 CSoutput.t47 commonsourceibias.t68 gnd.t265 gnd.t12 sky130_fd_pr__nfet_01v8 ad=1.155 pd=7.33 as=1.155 ps=7.33 w=7 l=1
X137 CSoutput.t105 a_n1986_8322.t2 sky130_fd_pr__cap_mim_m3_1 l=12 w=12
X138 a_n1808_13878.t11 a_n2848_n452.t24 a_n2848_n452.t25 vdd.t14 sky130_fd_pr__pfet_01v8_lvt ad=1.485 pd=9.33 as=1.485 ps=9.33 w=9 l=0.5
X139 a_n3106_n452.t29 plus.t16 a_n5644_8799.t20 gnd.t231 sky130_fd_pr__nfet_01v8 ad=1.155 pd=7.33 as=1.155 ps=7.33 w=7 l=0.9
X140 a_n2848_n452.t12 minus.t14 a_n3106_n452.t42 gnd.t242 sky130_fd_pr__nfet_01v8 ad=1.155 pd=7.33 as=1.155 ps=7.33 w=7 l=0.9
X141 vdd.t195 a_n2848_n452.t59 a_n1986_8322.t7 vdd.t194 sky130_fd_pr__pfet_01v8_lvt ad=1.485 pd=9.33 as=3.51 ps=18.78 w=9 l=0.5
X142 vdd.t52 vdd.t50 vdd.t51 vdd.t44 sky130_fd_pr__pfet_01v8_lvt ad=3.12 pd=16.78 as=0 ps=0 w=8 l=0.5
X143 gnd.t148 gnd.t145 gnd.t147 gnd.t146 sky130_fd_pr__nfet_01v8 ad=2.73 pd=14.78 as=0 ps=0 w=7 l=1
X144 a_n3106_n452.t41 diffpairibias.t19 gnd.t237 gnd.t236 sky130_fd_pr__nfet_01v8 ad=2.73 pd=14.78 as=2.73 ps=14.78 w=7 l=1
X145 CSoutput.t15 a_n5644_8799.t59 vdd.t133 vdd.t128 sky130_fd_pr__pfet_01v8_lvt ad=1.32 pd=8.33 as=1.32 ps=8.33 w=8 l=0.5
X146 CSoutput.t46 commonsourceibias.t69 gnd.t42 gnd.t7 sky130_fd_pr__nfet_01v8 ad=1.155 pd=7.33 as=1.155 ps=7.33 w=7 l=1
X147 a_n5644_8799.t19 plus.t17 a_n3106_n452.t28 gnd.t228 sky130_fd_pr__nfet_01v8 ad=1.155 pd=7.33 as=1.155 ps=7.33 w=7 l=0.9
X148 CSoutput.t45 commonsourceibias.t70 gnd.t226 gnd.t225 sky130_fd_pr__nfet_01v8 ad=1.155 pd=7.33 as=1.155 ps=7.33 w=7 l=1
X149 a_n3106_n452.t49 diffpairibias.t20 gnd.t254 gnd.t253 sky130_fd_pr__nfet_01v8 ad=2.73 pd=14.78 as=2.73 ps=14.78 w=7 l=1
X150 vdd.t132 a_n5644_8799.t60 CSoutput.t13 vdd.t99 sky130_fd_pr__pfet_01v8_lvt ad=3.12 pd=16.78 as=1.32 ps=8.33 w=8 l=0.5
X151 gnd.t54 commonsourceibias.t71 CSoutput.t44 gnd.t53 sky130_fd_pr__nfet_01v8 ad=2.73 pd=14.78 as=1.155 ps=7.33 w=7 l=1
X152 CSoutput.t43 commonsourceibias.t72 gnd.t33 gnd.t32 sky130_fd_pr__nfet_01v8 ad=1.155 pd=7.33 as=1.155 ps=7.33 w=7 l=1
X153 a_n5644_8799.t17 plus.t18 a_n3106_n452.t27 gnd.t36 sky130_fd_pr__nfet_01v8 ad=1.155 pd=7.33 as=1.155 ps=7.33 w=7 l=0.9
X154 vdd.t131 a_n5644_8799.t61 CSoutput.t81 vdd.t114 sky130_fd_pr__pfet_01v8_lvt ad=1.32 pd=8.33 as=1.32 ps=8.33 w=8 l=0.5
X155 minus.t3 gnd.t142 gnd.t144 gnd.t143 sky130_fd_pr__nfet_01v8 ad=0.165 pd=1.33 as=0.165 ps=1.33 w=1 l=0.5
X156 gnd.t141 gnd.t139 gnd.t140 gnd.t95 sky130_fd_pr__nfet_01v8 ad=2.73 pd=14.78 as=0 ps=0 w=7 l=1
X157 diffpairibias.t9 diffpairibias.t8 gnd.t256 gnd.t255 sky130_fd_pr__nfet_01v8 ad=2.73 pd=14.78 as=2.73 ps=14.78 w=7 l=1
X158 a_n2848_n452.t0 minus.t15 a_n3106_n452.t0 gnd.t3 sky130_fd_pr__nfet_01v8 ad=1.155 pd=7.33 as=1.155 ps=7.33 w=7 l=0.9
X159 a_n3106_n452.t26 plus.t19 a_n5644_8799.t11 gnd.t5 sky130_fd_pr__nfet_01v8 ad=1.155 pd=7.33 as=1.155 ps=7.33 w=7 l=0.9
X160 CSoutput.t92 a_n5644_8799.t62 vdd.t130 vdd.t118 sky130_fd_pr__pfet_01v8_lvt ad=1.32 pd=8.33 as=1.32 ps=8.33 w=8 l=0.5
X161 CSoutput.t42 commonsourceibias.t73 gnd.t210 gnd.t209 sky130_fd_pr__nfet_01v8 ad=1.155 pd=7.33 as=2.73 ps=14.78 w=7 l=1
X162 gnd.t269 commonsourceibias.t74 CSoutput.t41 gnd.t218 sky130_fd_pr__nfet_01v8 ad=1.155 pd=7.33 as=1.155 ps=7.33 w=7 l=1
X163 vdd.t49 vdd.t47 vdd.t48 vdd.t29 sky130_fd_pr__pfet_01v8_lvt ad=3.12 pd=16.78 as=0 ps=0 w=8 l=0.5
X164 a_n1808_13878.t5 a_n2848_n452.t60 vdd.t197 vdd.t196 sky130_fd_pr__pfet_01v8_lvt ad=1.485 pd=9.33 as=1.485 ps=9.33 w=9 l=0.5
X165 vdd.t199 a_n2848_n452.t61 a_n1808_13878.t4 vdd.t198 sky130_fd_pr__pfet_01v8_lvt ad=1.485 pd=9.33 as=1.485 ps=9.33 w=9 l=0.5
X166 gnd.t220 commonsourceibias.t22 commonsourceibias.t23 gnd.t60 sky130_fd_pr__nfet_01v8 ad=1.155 pd=7.33 as=1.155 ps=7.33 w=7 l=1
X167 gnd.t264 commonsourceibias.t75 CSoutput.t40 gnd.t180 sky130_fd_pr__nfet_01v8 ad=2.73 pd=14.78 as=1.155 ps=7.33 w=7 l=1
X168 output.t9 CSoutput.t106 vdd.t168 gnd.t9 sky130_fd_pr__nfet_01v8_lvt ad=0.825 pd=5.33 as=0.825 ps=5.33 w=5 l=1
X169 vdd.t46 vdd.t43 vdd.t45 vdd.t44 sky130_fd_pr__pfet_01v8_lvt ad=3.12 pd=16.78 as=0 ps=0 w=8 l=0.5
X170 gnd.t247 commonsourceibias.t76 CSoutput.t39 gnd.t246 sky130_fd_pr__nfet_01v8 ad=1.155 pd=7.33 as=1.155 ps=7.33 w=7 l=1
X171 a_n3106_n452.t44 minus.t16 a_n2848_n452.t14 gnd.t21 sky130_fd_pr__nfet_01v8 ad=1.155 pd=7.33 as=1.155 ps=7.33 w=7 l=0.9
X172 diffpairibias.t7 diffpairibias.t6 gnd.t230 gnd.t229 sky130_fd_pr__nfet_01v8 ad=2.73 pd=14.78 as=2.73 ps=14.78 w=7 l=1
X173 CSoutput.t91 a_n5644_8799.t63 vdd.t129 vdd.t128 sky130_fd_pr__pfet_01v8_lvt ad=1.32 pd=8.33 as=1.32 ps=8.33 w=8 l=0.5
X174 gnd.t283 commonsourceibias.t20 commonsourceibias.t21 gnd.t246 sky130_fd_pr__nfet_01v8 ad=1.155 pd=7.33 as=1.155 ps=7.33 w=7 l=1
X175 output.t8 CSoutput.t107 vdd.t173 gnd.t10 sky130_fd_pr__nfet_01v8_lvt ad=0.825 pd=5.33 as=0.825 ps=5.33 w=5 l=1
X176 vdd.t127 a_n5644_8799.t64 CSoutput.t18 vdd.t99 sky130_fd_pr__pfet_01v8_lvt ad=3.12 pd=16.78 as=1.32 ps=8.33 w=8 l=0.5
X177 CSoutput.t38 commonsourceibias.t77 gnd.t31 gnd.t30 sky130_fd_pr__nfet_01v8 ad=1.155 pd=7.33 as=1.155 ps=7.33 w=7 l=1
X178 a_n3106_n452.t45 minus.t17 a_n2848_n452.t15 gnd.t0 sky130_fd_pr__nfet_01v8 ad=1.155 pd=7.33 as=1.155 ps=7.33 w=7 l=0.9
X179 a_n3106_n452.t25 plus.t20 a_n5644_8799.t25 gnd.t11 sky130_fd_pr__nfet_01v8 ad=2.73 pd=14.78 as=1.155 ps=7.33 w=7 l=0.9
X180 gnd.t138 gnd.t136 gnd.t137 gnd.t95 sky130_fd_pr__nfet_01v8 ad=2.73 pd=14.78 as=0 ps=0 w=7 l=1
X181 gnd.t135 gnd.t133 gnd.t134 gnd.t74 sky130_fd_pr__nfet_01v8 ad=2.73 pd=14.78 as=0 ps=0 w=7 l=1
X182 a_n1986_8322.t18 a_n2848_n452.t62 a_n5644_8799.t8 vdd.t11 sky130_fd_pr__pfet_01v8_lvt ad=1.485 pd=9.33 as=1.485 ps=9.33 w=9 l=0.5
X183 CSoutput.t37 commonsourceibias.t78 gnd.t65 gnd.t12 sky130_fd_pr__nfet_01v8 ad=1.155 pd=7.33 as=1.155 ps=7.33 w=7 l=1
X184 a_n3106_n452.t13 minus.t18 a_n2848_n452.t10 gnd.t19 sky130_fd_pr__nfet_01v8 ad=1.155 pd=7.33 as=1.155 ps=7.33 w=7 l=0.9
X185 vdd.t126 a_n5644_8799.t65 CSoutput.t12 vdd.t125 sky130_fd_pr__pfet_01v8_lvt ad=1.32 pd=8.33 as=1.32 ps=8.33 w=8 l=0.5
X186 CSoutput.t82 a_n5644_8799.t66 vdd.t124 vdd.t105 sky130_fd_pr__pfet_01v8_lvt ad=1.32 pd=8.33 as=1.32 ps=8.33 w=8 l=0.5
X187 vdd.t123 a_n5644_8799.t67 CSoutput.t70 vdd.t114 sky130_fd_pr__pfet_01v8_lvt ad=1.32 pd=8.33 as=1.32 ps=8.33 w=8 l=0.5
X188 vdd.t13 a_n2848_n452.t63 a_n1986_8322.t6 vdd.t12 sky130_fd_pr__pfet_01v8_lvt ad=1.485 pd=9.33 as=3.51 ps=18.78 w=9 l=0.5
X189 gnd.t227 commonsourceibias.t18 commonsourceibias.t19 gnd.t15 sky130_fd_pr__nfet_01v8 ad=1.155 pd=7.33 as=1.155 ps=7.33 w=7 l=1
X190 a_n1808_13878.t3 a_n2848_n452.t64 vdd.t192 vdd.t191 sky130_fd_pr__pfet_01v8_lvt ad=3.51 pd=18.78 as=1.485 ps=9.33 w=9 l=0.5
X191 gnd.t132 gnd.t129 gnd.t131 gnd.t130 sky130_fd_pr__nfet_01v8 ad=2.73 pd=14.78 as=0 ps=0 w=7 l=1
X192 minus.t2 gnd.t126 gnd.t128 gnd.t127 sky130_fd_pr__nfet_01v8 ad=0.165 pd=1.33 as=0.165 ps=1.33 w=1 l=0.5
X193 CSoutput.t36 commonsourceibias.t79 gnd.t18 gnd.t17 sky130_fd_pr__nfet_01v8 ad=1.155 pd=7.33 as=1.155 ps=7.33 w=7 l=1
X194 a_n3106_n452.t15 diffpairibias.t21 gnd.t204 gnd.t203 sky130_fd_pr__nfet_01v8 ad=2.73 pd=14.78 as=2.73 ps=14.78 w=7 l=1
X195 CSoutput.t69 a_n5644_8799.t68 vdd.t122 vdd.t118 sky130_fd_pr__pfet_01v8_lvt ad=1.32 pd=8.33 as=1.32 ps=8.33 w=8 l=0.5
X196 a_n5644_8799.t23 plus.t21 a_n3106_n452.t24 gnd.t37 sky130_fd_pr__nfet_01v8 ad=1.155 pd=7.33 as=1.155 ps=7.33 w=7 l=0.9
X197 a_n2848_n452.t13 minus.t19 a_n3106_n452.t43 gnd.t235 sky130_fd_pr__nfet_01v8 ad=1.155 pd=7.33 as=1.155 ps=7.33 w=7 l=0.9
X198 CSoutput.t35 commonsourceibias.t80 gnd.t270 gnd.t225 sky130_fd_pr__nfet_01v8 ad=1.155 pd=7.33 as=1.155 ps=7.33 w=7 l=1
X199 output.t7 CSoutput.t108 vdd.t174 gnd.t67 sky130_fd_pr__nfet_01v8_lvt ad=0.825 pd=5.33 as=0.825 ps=5.33 w=5 l=1
X200 CSoutput.t7 a_n5644_8799.t69 vdd.t121 vdd.t116 sky130_fd_pr__pfet_01v8_lvt ad=1.32 pd=8.33 as=3.12 ps=16.78 w=8 l=0.5
X201 a_n3106_n452.t14 minus.t20 a_n2848_n452.t11 gnd.t200 sky130_fd_pr__nfet_01v8 ad=2.73 pd=14.78 as=1.155 ps=7.33 w=7 l=0.9
X202 CSoutput.t109 a_n1986_8322.t1 sky130_fd_pr__cap_mim_m3_1 l=12 w=12
X203 vdd.t42 vdd.t40 vdd.t41 vdd.t29 sky130_fd_pr__pfet_01v8_lvt ad=3.12 pd=16.78 as=0 ps=0 w=8 l=0.5
X204 CSoutput.t34 commonsourceibias.t81 gnd.t239 gnd.t32 sky130_fd_pr__nfet_01v8 ad=1.155 pd=7.33 as=1.155 ps=7.33 w=7 l=1
X205 gnd.t115 gnd.t112 gnd.t114 gnd.t113 sky130_fd_pr__nfet_01v8_lvt ad=1.95 pd=10.78 as=0 ps=0 w=5 l=1
X206 a_n1986_8322.t17 a_n2848_n452.t65 a_n5644_8799.t28 vdd.t193 sky130_fd_pr__pfet_01v8_lvt ad=1.485 pd=9.33 as=1.485 ps=9.33 w=9 l=0.5
X207 vdd.t9 a_n2848_n452.t66 a_n1986_8322.t5 vdd.t8 sky130_fd_pr__pfet_01v8_lvt ad=1.485 pd=9.33 as=1.485 ps=9.33 w=9 l=0.5
X208 vdd.t120 a_n5644_8799.t70 CSoutput.t71 vdd.t107 sky130_fd_pr__pfet_01v8_lvt ad=1.32 pd=8.33 as=1.32 ps=8.33 w=8 l=0.5
X209 CSoutput.t80 a_n5644_8799.t71 vdd.t119 vdd.t118 sky130_fd_pr__pfet_01v8_lvt ad=1.32 pd=8.33 as=1.32 ps=8.33 w=8 l=0.5
X210 gnd.t16 commonsourceibias.t82 CSoutput.t33 gnd.t15 sky130_fd_pr__nfet_01v8 ad=1.155 pd=7.33 as=1.155 ps=7.33 w=7 l=1
X211 output.t18 outputibias.t9 gnd.t276 gnd.t275 sky130_fd_pr__nfet_01v8 ad=2.34 pd=12.78 as=2.34 ps=12.78 w=6 l=2
X212 a_n3106_n452.t46 minus.t21 a_n2848_n452.t16 gnd.t14 sky130_fd_pr__nfet_01v8 ad=1.155 pd=7.33 as=1.155 ps=7.33 w=7 l=0.9
X213 gnd.t125 gnd.t123 gnd.t124 gnd.t88 sky130_fd_pr__nfet_01v8 ad=2.73 pd=14.78 as=0 ps=0 w=7 l=1
X214 vdd.t169 CSoutput.t110 output.t6 gnd.t68 sky130_fd_pr__nfet_01v8_lvt ad=0.825 pd=5.33 as=0.825 ps=5.33 w=5 l=1
X215 a_n3106_n452.t12 minus.t22 a_n2848_n452.t9 gnd.t69 sky130_fd_pr__nfet_01v8 ad=1.155 pd=7.33 as=1.155 ps=7.33 w=7 l=0.9
X216 gnd.t122 gnd.t120 gnd.t121 gnd.t88 sky130_fd_pr__nfet_01v8 ad=2.73 pd=14.78 as=0 ps=0 w=7 l=1
X217 output.t17 outputibias.t10 gnd.t279 gnd.t278 sky130_fd_pr__nfet_01v8 ad=2.34 pd=12.78 as=2.34 ps=12.78 w=6 l=2
X218 diffpairibias.t5 diffpairibias.t4 gnd.t27 gnd.t26 sky130_fd_pr__nfet_01v8 ad=2.73 pd=14.78 as=2.73 ps=14.78 w=7 l=1
X219 vdd.t39 vdd.t36 vdd.t38 vdd.t37 sky130_fd_pr__pfet_01v8_lvt ad=3.51 pd=18.78 as=0 ps=0 w=9 l=0.5
X220 vdd.t35 vdd.t32 vdd.t34 vdd.t33 sky130_fd_pr__pfet_01v8_lvt ad=3.12 pd=16.78 as=0 ps=0 w=8 l=0.5
X221 a_n1808_13878.t10 a_n2848_n452.t38 a_n2848_n452.t39 vdd.t190 sky130_fd_pr__pfet_01v8_lvt ad=1.485 pd=9.33 as=1.485 ps=9.33 w=9 l=0.5
X222 gnd.t224 commonsourceibias.t83 CSoutput.t32 gnd.t218 sky130_fd_pr__nfet_01v8 ad=1.155 pd=7.33 as=1.155 ps=7.33 w=7 l=1
X223 CSoutput.t31 commonsourceibias.t84 gnd.t250 gnd.t209 sky130_fd_pr__nfet_01v8 ad=1.155 pd=7.33 as=2.73 ps=14.78 w=7 l=1
X224 a_n1986_8322.t16 a_n2848_n452.t67 a_n5644_8799.t7 vdd.t10 sky130_fd_pr__pfet_01v8_lvt ad=1.485 pd=9.33 as=1.485 ps=9.33 w=9 l=0.5
X225 gnd.t119 gnd.t116 gnd.t118 gnd.t117 sky130_fd_pr__nfet_01v8 ad=2.73 pd=14.78 as=0 ps=0 w=7 l=0.9
X226 gnd.t61 commonsourceibias.t85 CSoutput.t30 gnd.t60 sky130_fd_pr__nfet_01v8 ad=1.155 pd=7.33 as=1.155 ps=7.33 w=7 l=1
X227 gnd.t258 commonsourceibias.t16 commonsourceibias.t17 gnd.t180 sky130_fd_pr__nfet_01v8 ad=2.73 pd=14.78 as=1.155 ps=7.33 w=7 l=1
X228 a_n3106_n452.t5 minus.t23 a_n2848_n452.t5 gnd.t28 sky130_fd_pr__nfet_01v8 ad=1.155 pd=7.33 as=1.155 ps=7.33 w=7 l=0.9
X229 gnd.t111 gnd.t108 gnd.t110 gnd.t109 sky130_fd_pr__nfet_01v8 ad=2.34 pd=12.78 as=0 ps=0 w=6 l=2
X230 vdd.t176 CSoutput.t111 output.t5 gnd.t183 sky130_fd_pr__nfet_01v8_lvt ad=0.825 pd=5.33 as=0.825 ps=5.33 w=5 l=1
X231 output.t4 CSoutput.t112 vdd.t172 gnd.t184 sky130_fd_pr__nfet_01v8_lvt ad=0.825 pd=5.33 as=0.825 ps=5.33 w=5 l=1
X232 CSoutput.t4 a_n5644_8799.t72 vdd.t117 vdd.t116 sky130_fd_pr__pfet_01v8_lvt ad=1.32 pd=8.33 as=3.12 ps=16.78 w=8 l=0.5
X233 a_n1986_8322.t4 a_n2848_n452.t68 vdd.t183 vdd.t182 sky130_fd_pr__pfet_01v8_lvt ad=3.51 pd=18.78 as=1.485 ps=9.33 w=9 l=0.5
X234 gnd.t107 gnd.t105 plus.t2 gnd.t106 sky130_fd_pr__nfet_01v8 ad=0.165 pd=1.33 as=0.165 ps=1.33 w=1 l=0.5
X235 gnd.t104 gnd.t102 gnd.t103 gnd.t74 sky130_fd_pr__nfet_01v8 ad=2.73 pd=14.78 as=0 ps=0 w=7 l=1
X236 CSoutput.t29 commonsourceibias.t86 gnd.t55 gnd.t30 sky130_fd_pr__nfet_01v8 ad=1.155 pd=7.33 as=1.155 ps=7.33 w=7 l=1
X237 gnd.t101 gnd.t98 gnd.t100 gnd.t99 sky130_fd_pr__nfet_01v8 ad=2.73 pd=14.78 as=0 ps=0 w=7 l=0.9
X238 CSoutput.t28 commonsourceibias.t87 gnd.t274 gnd.t195 sky130_fd_pr__nfet_01v8 ad=1.155 pd=7.33 as=1.155 ps=7.33 w=7 l=1
X239 gnd.t97 gnd.t94 gnd.t96 gnd.t95 sky130_fd_pr__nfet_01v8 ad=2.73 pd=14.78 as=0 ps=0 w=7 l=1
X240 output.t3 CSoutput.t113 vdd.t162 gnd.t185 sky130_fd_pr__nfet_01v8_lvt ad=0.825 pd=5.33 as=0.825 ps=5.33 w=5 l=1
X241 vdd.t185 a_n2848_n452.t69 a_n1808_13878.t2 vdd.t184 sky130_fd_pr__pfet_01v8_lvt ad=1.485 pd=9.33 as=3.51 ps=18.78 w=9 l=0.5
X242 vdd.t31 vdd.t28 vdd.t30 vdd.t29 sky130_fd_pr__pfet_01v8_lvt ad=3.12 pd=16.78 as=0 ps=0 w=8 l=0.5
X243 a_n1986_8322.t15 a_n2848_n452.t70 a_n5644_8799.t26 vdd.t178 sky130_fd_pr__pfet_01v8_lvt ad=3.51 pd=18.78 as=1.485 ps=9.33 w=9 l=0.5
X244 a_n3106_n452.t23 plus.t22 a_n5644_8799.t35 gnd.t4 sky130_fd_pr__nfet_01v8 ad=1.155 pd=7.33 as=1.155 ps=7.33 w=7 l=0.9
X245 output.t16 outputibias.t11 gnd.t202 gnd.t201 sky130_fd_pr__nfet_01v8 ad=2.34 pd=12.78 as=2.34 ps=12.78 w=6 l=2
X246 vdd.t27 vdd.t25 vdd.t26 vdd.t22 sky130_fd_pr__pfet_01v8_lvt ad=3.12 pd=16.78 as=0 ps=0 w=8 l=0.5
X247 a_n5644_8799.t27 a_n2848_n452.t71 a_n1986_8322.t14 vdd.t190 sky130_fd_pr__pfet_01v8_lvt ad=1.485 pd=9.33 as=1.485 ps=9.33 w=9 l=0.5
X248 a_n1808_13878.t1 a_n2848_n452.t72 vdd.t6 vdd.t5 sky130_fd_pr__pfet_01v8_lvt ad=3.51 pd=18.78 as=1.485 ps=9.33 w=9 l=0.5
X249 vdd.t115 a_n5644_8799.t73 CSoutput.t8 vdd.t114 sky130_fd_pr__pfet_01v8_lvt ad=1.32 pd=8.33 as=1.32 ps=8.33 w=8 l=0.5