* NGSPICE file created from opamp281.ext - technology: sky130A

.subckt opamp281 gnd CSoutput output vdd plus minus commonsourceibias outputibias
+ diffpairibias
X0 gnd.t341 commonsourceibias.t80 CSoutput.t127 gnd.t194 sky130_fd_pr__nfet_01v8 ad=1.155 pd=7.33 as=1.155 ps=7.33 w=7 l=1
X1 a_n6972_8799.t25 plus.t5 a_n2903_n3924.t28 gnd.t10 sky130_fd_pr__nfet_01v8 ad=1.155 pd=7.33 as=1.155 ps=7.33 w=7 l=0.7
X2 CSoutput.t25 a_n6972_8799.t32 vdd.t136 vdd.t86 sky130_fd_pr__pfet_01v8 ad=1.32 pd=8.33 as=1.32 ps=8.33 w=8 l=0.5
X3 commonsourceibias.t37 commonsourceibias.t36 gnd.t340 gnd.t305 sky130_fd_pr__nfet_01v8 ad=1.155 pd=7.33 as=1.155 ps=7.33 w=7 l=1
X4 a_n1808_13878.t19 a_n1996_n452.t44 vdd.t148 vdd.t147 sky130_fd_pr__pfet_01v8 ad=1.485 pd=9.33 as=1.485 ps=9.33 w=9 l=0.5
X5 a_n1808_13878.t11 a_n1996_n452.t18 a_n1996_n452.t19 vdd.t6 sky130_fd_pr__pfet_01v8 ad=1.485 pd=9.33 as=1.485 ps=9.33 w=9 l=0.5
X6 vdd.t135 a_n6972_8799.t33 CSoutput.t171 vdd.t81 sky130_fd_pr__pfet_01v8 ad=1.32 pd=8.33 as=1.32 ps=8.33 w=8 l=0.5
X7 CSoutput.t53 a_n6972_8799.t34 vdd.t134 vdd.t17 sky130_fd_pr__pfet_01v8 ad=1.32 pd=8.33 as=1.32 ps=8.33 w=8 l=0.5
X8 vdd.t253 vdd.t251 vdd.t252 vdd.t187 sky130_fd_pr__pfet_01v8 ad=3.12 pd=16.78 as=0 ps=0 w=8 l=0.5
X9 outputibias.t7 outputibias.t6 gnd.t162 gnd.t161 sky130_fd_pr__nfet_01v8 ad=2.34 pd=12.78 as=2.34 ps=12.78 w=6 l=2
X10 gnd.t123 gnd.t121 gnd.t122 gnd.t31 sky130_fd_pr__nfet_01v8 ad=2.73 pd=14.78 as=0 ps=0 w=7 l=1
X11 gnd.t120 gnd.t118 plus.t4 gnd.t119 sky130_fd_pr__nfet_01v8 ad=0.165 pd=1.33 as=0.165 ps=1.33 w=1 l=0.5
X12 CSoutput.t16 a_n6972_8799.t35 vdd.t133 vdd.t19 sky130_fd_pr__pfet_01v8 ad=1.32 pd=8.33 as=1.32 ps=8.33 w=8 l=0.5
X13 a_n2903_n3924.t27 plus.t6 a_n6972_8799.t24 gnd.t142 sky130_fd_pr__nfet_01v8 ad=1.155 pd=7.33 as=1.155 ps=7.33 w=7 l=0.7
X14 gnd.t339 commonsourceibias.t81 CSoutput.t126 gnd.t299 sky130_fd_pr__nfet_01v8 ad=1.155 pd=7.33 as=1.155 ps=7.33 w=7 l=1
X15 CSoutput.t176 a_n1986_8322.t21 sky130_fd_pr__cap_mim_m3_1 l=12 w=12
X16 gnd.t338 commonsourceibias.t82 CSoutput.t125 gnd.t220 sky130_fd_pr__nfet_01v8 ad=1.155 pd=7.33 as=1.155 ps=7.33 w=7 l=1
X17 gnd.t337 commonsourceibias.t46 commonsourceibias.t47 gnd.t218 sky130_fd_pr__nfet_01v8 ad=1.155 pd=7.33 as=1.155 ps=7.33 w=7 l=1
X18 gnd.t336 commonsourceibias.t83 CSoutput.t136 gnd.t218 sky130_fd_pr__nfet_01v8 ad=1.155 pd=7.33 as=1.155 ps=7.33 w=7 l=1
X19 a_n2903_n3924.t8 minus.t5 a_n1996_n452.t6 gnd.t15 sky130_fd_pr__nfet_01v8 ad=2.73 pd=14.78 as=1.155 ps=7.33 w=7 l=0.7
X20 a_n1986_8322.t11 a_n1996_n452.t45 a_n6972_8799.t5 vdd.t142 sky130_fd_pr__pfet_01v8 ad=1.485 pd=9.33 as=1.485 ps=9.33 w=9 l=0.5
X21 gnd.t335 commonsourceibias.t84 CSoutput.t135 gnd.t214 sky130_fd_pr__nfet_01v8 ad=1.155 pd=7.33 as=1.155 ps=7.33 w=7 l=1
X22 output.t19 CSoutput.t177 vdd.t153 gnd.t160 sky130_fd_pr__nfet_01v8 ad=0.825 pd=5.33 as=0.825 ps=5.33 w=5 l=1
X23 CSoutput.t31 a_n6972_8799.t36 vdd.t132 vdd.t52 sky130_fd_pr__pfet_01v8 ad=1.32 pd=8.33 as=1.32 ps=8.33 w=8 l=0.5
X24 outputibias.t5 outputibias.t4 gnd.t144 gnd.t143 sky130_fd_pr__nfet_01v8 ad=2.34 pd=12.78 as=2.34 ps=12.78 w=6 l=2
X25 gnd.t334 commonsourceibias.t85 CSoutput.t134 gnd.t231 sky130_fd_pr__nfet_01v8 ad=1.155 pd=7.33 as=1.155 ps=7.33 w=7 l=1
X26 vdd.t131 a_n6972_8799.t37 CSoutput.t33 vdd.t75 sky130_fd_pr__pfet_01v8 ad=1.32 pd=8.33 as=1.32 ps=8.33 w=8 l=0.5
X27 a_n1996_n452.t40 minus.t6 a_n2903_n3924.t42 gnd.t131 sky130_fd_pr__nfet_01v8 ad=1.155 pd=7.33 as=1.155 ps=7.33 w=7 l=0.7
X28 gnd.t333 commonsourceibias.t44 commonsourceibias.t45 gnd.t241 sky130_fd_pr__nfet_01v8 ad=1.155 pd=7.33 as=1.155 ps=7.33 w=7 l=1
X29 vdd.t130 a_n6972_8799.t38 CSoutput.t167 vdd.t95 sky130_fd_pr__pfet_01v8 ad=1.32 pd=8.33 as=1.32 ps=8.33 w=8 l=0.5
X30 a_n1996_n452.t35 minus.t7 a_n2903_n3924.t35 gnd.t166 sky130_fd_pr__nfet_01v8 ad=1.155 pd=7.33 as=1.155 ps=7.33 w=7 l=0.7
X31 CSoutput.t41 a_n6972_8799.t39 vdd.t129 vdd.t54 sky130_fd_pr__pfet_01v8 ad=1.32 pd=8.33 as=1.32 ps=8.33 w=8 l=0.5
X32 vdd.t128 a_n6972_8799.t40 CSoutput.t43 vdd.t116 sky130_fd_pr__pfet_01v8 ad=1.32 pd=8.33 as=1.32 ps=8.33 w=8 l=0.5
X33 a_n6972_8799.t28 a_n1996_n452.t46 a_n1986_8322.t10 vdd.t146 sky130_fd_pr__pfet_01v8 ad=1.485 pd=9.33 as=3.51 ps=18.78 w=9 l=0.5
X34 CSoutput.t5 a_n6972_8799.t41 vdd.t127 vdd.t13 sky130_fd_pr__pfet_01v8 ad=1.32 pd=8.33 as=3.12 ps=16.78 w=8 l=0.5
X35 CSoutput.t133 commonsourceibias.t86 gnd.t332 gnd.t208 sky130_fd_pr__nfet_01v8 ad=1.155 pd=7.33 as=1.155 ps=7.33 w=7 l=1
X36 a_n2903_n3924.t6 minus.t8 a_n1996_n452.t4 gnd.t11 sky130_fd_pr__nfet_01v8 ad=2.73 pd=14.78 as=1.155 ps=7.33 w=7 l=0.7
X37 gnd.t331 commonsourceibias.t42 commonsourceibias.t43 gnd.t295 sky130_fd_pr__nfet_01v8 ad=1.155 pd=7.33 as=1.155 ps=7.33 w=7 l=1
X38 CSoutput.t132 commonsourceibias.t87 gnd.t330 gnd.t203 sky130_fd_pr__nfet_01v8 ad=1.155 pd=7.33 as=1.155 ps=7.33 w=7 l=1
X39 CSoutput.t34 a_n6972_8799.t42 vdd.t126 vdd.t86 sky130_fd_pr__pfet_01v8 ad=1.32 pd=8.33 as=1.32 ps=8.33 w=8 l=0.5
X40 vdd.t154 CSoutput.t178 output.t18 gnd.t159 sky130_fd_pr__nfet_01v8 ad=0.825 pd=5.33 as=0.825 ps=5.33 w=5 l=1
X41 vdd.t250 vdd.t248 vdd.t249 vdd.t183 sky130_fd_pr__pfet_01v8 ad=3.12 pd=16.78 as=0 ps=0 w=8 l=0.5
X42 CSoutput.t129 commonsourceibias.t88 gnd.t327 gnd.t201 sky130_fd_pr__nfet_01v8 ad=1.155 pd=7.33 as=1.155 ps=7.33 w=7 l=1
X43 CSoutput.t131 commonsourceibias.t89 gnd.t329 gnd.t199 sky130_fd_pr__nfet_01v8 ad=1.155 pd=7.33 as=1.155 ps=7.33 w=7 l=1
X44 a_n2903_n3924.t39 diffpairibias.t16 gnd.t171 gnd.t170 sky130_fd_pr__nfet_01v8 ad=2.73 pd=14.78 as=2.73 ps=14.78 w=7 l=1
X45 CSoutput.t45 a_n6972_8799.t43 vdd.t125 vdd.t46 sky130_fd_pr__pfet_01v8 ad=1.32 pd=8.33 as=1.32 ps=8.33 w=8 l=0.5
X46 vdd.t247 vdd.t245 vdd.t246 vdd.t187 sky130_fd_pr__pfet_01v8 ad=3.12 pd=16.78 as=0 ps=0 w=8 l=0.5
X47 CSoutput.t130 commonsourceibias.t90 gnd.t328 gnd.t196 sky130_fd_pr__nfet_01v8 ad=1.155 pd=7.33 as=1.155 ps=7.33 w=7 l=1
X48 CSoutput.t32 a_n6972_8799.t44 vdd.t124 vdd.t19 sky130_fd_pr__pfet_01v8 ad=1.32 pd=8.33 as=1.32 ps=8.33 w=8 l=0.5
X49 a_n2903_n3924.t24 plus.t7 a_n6972_8799.t23 gnd.t163 sky130_fd_pr__nfet_01v8 ad=1.155 pd=7.33 as=1.155 ps=7.33 w=7 l=0.7
X50 gnd.t326 commonsourceibias.t40 commonsourceibias.t41 gnd.t253 sky130_fd_pr__nfet_01v8 ad=1.155 pd=7.33 as=1.155 ps=7.33 w=7 l=1
X51 outputibias.t3 outputibias.t2 gnd.t13 gnd.t12 sky130_fd_pr__nfet_01v8 ad=2.34 pd=12.78 as=2.34 ps=12.78 w=6 l=2
X52 output.t17 CSoutput.t179 vdd.t155 gnd.t158 sky130_fd_pr__nfet_01v8 ad=0.825 pd=5.33 as=0.825 ps=5.33 w=5 l=1
X53 vdd.t123 a_n6972_8799.t45 CSoutput.t14 vdd.t116 sky130_fd_pr__pfet_01v8 ad=1.32 pd=8.33 as=1.32 ps=8.33 w=8 l=0.5
X54 a_n1808_13878.t10 a_n1996_n452.t30 a_n1996_n452.t31 vdd.t3 sky130_fd_pr__pfet_01v8 ad=1.485 pd=9.33 as=3.51 ps=18.78 w=9 l=0.5
X55 CSoutput.t84 commonsourceibias.t91 gnd.t313 gnd.t305 sky130_fd_pr__nfet_01v8 ad=1.155 pd=7.33 as=1.155 ps=7.33 w=7 l=1
X56 CSoutput.t12 a_n6972_8799.t46 vdd.t122 vdd.t79 sky130_fd_pr__pfet_01v8 ad=1.32 pd=8.33 as=1.32 ps=8.33 w=8 l=0.5
X57 commonsourceibias.t39 commonsourceibias.t38 gnd.t325 gnd.t278 sky130_fd_pr__nfet_01v8 ad=1.155 pd=7.33 as=2.73 ps=14.78 w=7 l=1
X58 a_n1996_n452.t17 a_n1996_n452.t16 a_n1808_13878.t9 vdd.t137 sky130_fd_pr__pfet_01v8 ad=1.485 pd=9.33 as=1.485 ps=9.33 w=9 l=0.5
X59 CSoutput.t180 a_n1986_8322.t20 sky130_fd_pr__cap_mim_m3_1 l=12 w=12
X60 a_n6972_8799.t22 plus.t8 a_n2903_n3924.t23 gnd.t167 sky130_fd_pr__nfet_01v8 ad=1.155 pd=7.33 as=1.155 ps=7.33 w=7 l=0.7
X61 CSoutput.t24 a_n6972_8799.t47 vdd.t121 vdd.t52 sky130_fd_pr__pfet_01v8 ad=1.32 pd=8.33 as=1.32 ps=8.33 w=8 l=0.5
X62 vdd.t244 vdd.t242 vdd.t243 vdd.t218 sky130_fd_pr__pfet_01v8 ad=3.51 pd=18.78 as=0 ps=0 w=9 l=0.5
X63 vdd.t120 a_n6972_8799.t48 CSoutput.t40 vdd.t75 sky130_fd_pr__pfet_01v8 ad=1.32 pd=8.33 as=1.32 ps=8.33 w=8 l=0.5
X64 diffpairibias.t15 diffpairibias.t14 gnd.t173 gnd.t172 sky130_fd_pr__nfet_01v8 ad=2.73 pd=14.78 as=2.73 ps=14.78 w=7 l=1
X65 a_n1996_n452.t5 minus.t9 a_n2903_n3924.t7 gnd.t14 sky130_fd_pr__nfet_01v8 ad=1.155 pd=7.33 as=1.155 ps=7.33 w=7 l=0.7
X66 gnd.t117 gnd.t115 gnd.t116 gnd.t31 sky130_fd_pr__nfet_01v8 ad=2.73 pd=14.78 as=0 ps=0 w=7 l=1
X67 CSoutput.t69 a_n6972_8799.t49 vdd.t119 vdd.t83 sky130_fd_pr__pfet_01v8 ad=1.32 pd=8.33 as=1.32 ps=8.33 w=8 l=0.5
X68 vdd.t118 a_n6972_8799.t50 CSoutput.t70 vdd.t27 sky130_fd_pr__pfet_01v8 ad=1.32 pd=8.33 as=1.32 ps=8.33 w=8 l=0.5
X69 vdd.t117 a_n6972_8799.t51 CSoutput.t72 vdd.t116 sky130_fd_pr__pfet_01v8 ad=1.32 pd=8.33 as=1.32 ps=8.33 w=8 l=0.5
X70 gnd.t324 commonsourceibias.t92 CSoutput.t128 gnd.t299 sky130_fd_pr__nfet_01v8 ad=1.155 pd=7.33 as=1.155 ps=7.33 w=7 l=1
X71 plus.t3 gnd.t112 gnd.t114 gnd.t113 sky130_fd_pr__nfet_01v8 ad=0.165 pd=1.33 as=0.165 ps=1.33 w=1 l=0.5
X72 vdd.t115 a_n6972_8799.t52 CSoutput.t74 vdd.t72 sky130_fd_pr__pfet_01v8 ad=1.32 pd=8.33 as=1.32 ps=8.33 w=8 l=0.5
X73 diffpairibias.t13 diffpairibias.t12 gnd.t165 gnd.t164 sky130_fd_pr__nfet_01v8 ad=2.73 pd=14.78 as=2.73 ps=14.78 w=7 l=1
X74 gnd.t323 commonsourceibias.t93 CSoutput.t89 gnd.t182 sky130_fd_pr__nfet_01v8 ad=1.155 pd=7.33 as=1.155 ps=7.33 w=7 l=1
X75 CSoutput.t78 a_n6972_8799.t53 vdd.t114 vdd.t13 sky130_fd_pr__pfet_01v8 ad=1.32 pd=8.33 as=3.12 ps=16.78 w=8 l=0.5
X76 CSoutput.t174 a_n6972_8799.t54 vdd.t113 vdd.t34 sky130_fd_pr__pfet_01v8 ad=1.32 pd=8.33 as=3.12 ps=16.78 w=8 l=0.5
X77 output.t16 CSoutput.t181 vdd.t163 gnd.t157 sky130_fd_pr__nfet_01v8 ad=0.825 pd=5.33 as=0.825 ps=5.33 w=5 l=1
X78 commonsourceibias.t11 commonsourceibias.t10 gnd.t322 gnd.t208 sky130_fd_pr__nfet_01v8 ad=1.155 pd=7.33 as=1.155 ps=7.33 w=7 l=1
X79 gnd.t111 gnd.t109 gnd.t110 gnd.t43 sky130_fd_pr__nfet_01v8 ad=2.73 pd=14.78 as=0 ps=0 w=7 l=0.7
X80 gnd.t321 commonsourceibias.t94 CSoutput.t88 gnd.t295 sky130_fd_pr__nfet_01v8 ad=1.155 pd=7.33 as=1.155 ps=7.33 w=7 l=1
X81 vdd.t112 a_n6972_8799.t55 CSoutput.t13 vdd.t15 sky130_fd_pr__pfet_01v8 ad=1.32 pd=8.33 as=1.32 ps=8.33 w=8 l=0.5
X82 CSoutput.t3 a_n6972_8799.t56 vdd.t111 vdd.t99 sky130_fd_pr__pfet_01v8 ad=1.32 pd=8.33 as=1.32 ps=8.33 w=8 l=0.5
X83 CSoutput.t65 a_n6972_8799.t57 vdd.t110 vdd.t46 sky130_fd_pr__pfet_01v8 ad=1.32 pd=8.33 as=1.32 ps=8.33 w=8 l=0.5
X84 CSoutput.t11 a_n6972_8799.t58 vdd.t109 vdd.t99 sky130_fd_pr__pfet_01v8 ad=1.32 pd=8.33 as=1.32 ps=8.33 w=8 l=0.5
X85 commonsourceibias.t9 commonsourceibias.t8 gnd.t320 gnd.t244 sky130_fd_pr__nfet_01v8 ad=1.155 pd=7.33 as=1.155 ps=7.33 w=7 l=1
X86 gnd.t319 commonsourceibias.t95 CSoutput.t87 gnd.t231 sky130_fd_pr__nfet_01v8 ad=1.155 pd=7.33 as=1.155 ps=7.33 w=7 l=1
X87 output.t15 CSoutput.t182 vdd.t167 gnd.t156 sky130_fd_pr__nfet_01v8 ad=1.95 pd=10.78 as=0.825 ps=5.33 w=5 l=1
X88 vdd.t108 a_n6972_8799.t59 CSoutput.t22 vdd.t97 sky130_fd_pr__pfet_01v8 ad=1.32 pd=8.33 as=1.32 ps=8.33 w=8 l=0.5
X89 commonsourceibias.t7 commonsourceibias.t6 gnd.t318 gnd.t186 sky130_fd_pr__nfet_01v8 ad=1.155 pd=7.33 as=1.155 ps=7.33 w=7 l=1
X90 gnd.t316 commonsourceibias.t96 CSoutput.t85 gnd.t291 sky130_fd_pr__nfet_01v8 ad=1.155 pd=7.33 as=1.155 ps=7.33 w=7 l=1
X91 a_n2903_n3924.t22 plus.t9 a_n6972_8799.t21 gnd.t8 sky130_fd_pr__nfet_01v8 ad=1.155 pd=7.33 as=1.155 ps=7.33 w=7 l=0.7
X92 CSoutput.t86 commonsourceibias.t97 gnd.t317 gnd.t288 sky130_fd_pr__nfet_01v8 ad=1.155 pd=7.33 as=1.155 ps=7.33 w=7 l=1
X93 gnd.t315 commonsourceibias.t4 commonsourceibias.t5 gnd.t291 sky130_fd_pr__nfet_01v8 ad=1.155 pd=7.33 as=1.155 ps=7.33 w=7 l=1
X94 a_n2903_n3924.t9 diffpairibias.t17 gnd.t125 gnd.t124 sky130_fd_pr__nfet_01v8 ad=2.73 pd=14.78 as=2.73 ps=14.78 w=7 l=1
X95 CSoutput.t183 a_n1986_8322.t20 sky130_fd_pr__cap_mim_m3_1 l=12 w=12
X96 a_n1996_n452.t21 a_n1996_n452.t20 a_n1808_13878.t8 vdd.t142 sky130_fd_pr__pfet_01v8 ad=1.485 pd=9.33 as=1.485 ps=9.33 w=9 l=0.5
X97 vdd.t107 a_n6972_8799.t60 CSoutput.t30 vdd.t56 sky130_fd_pr__pfet_01v8 ad=1.32 pd=8.33 as=1.32 ps=8.33 w=8 l=0.5
X98 a_n6972_8799.t29 a_n1996_n452.t47 a_n1986_8322.t9 vdd.t175 sky130_fd_pr__pfet_01v8 ad=1.485 pd=9.33 as=1.485 ps=9.33 w=9 l=0.5
X99 vdd.t106 a_n6972_8799.t61 CSoutput.t21 vdd.t95 sky130_fd_pr__pfet_01v8 ad=1.32 pd=8.33 as=1.32 ps=8.33 w=8 l=0.5
X100 a_n1996_n452.t23 a_n1996_n452.t22 a_n1808_13878.t7 vdd.t7 sky130_fd_pr__pfet_01v8 ad=3.51 pd=18.78 as=1.485 ps=9.33 w=9 l=0.5
X101 gnd.t314 commonsourceibias.t2 commonsourceibias.t3 gnd.t276 sky130_fd_pr__nfet_01v8 ad=2.73 pd=14.78 as=1.155 ps=7.33 w=7 l=1
X102 vdd.t105 a_n6972_8799.t62 CSoutput.t67 vdd.t97 sky130_fd_pr__pfet_01v8 ad=1.32 pd=8.33 as=1.32 ps=8.33 w=8 l=0.5
X103 commonsourceibias.t1 commonsourceibias.t0 gnd.t312 gnd.t196 sky130_fd_pr__nfet_01v8 ad=1.155 pd=7.33 as=1.155 ps=7.33 w=7 l=1
X104 CSoutput.t83 commonsourceibias.t98 gnd.t311 gnd.t201 sky130_fd_pr__nfet_01v8 ad=1.155 pd=7.33 as=1.155 ps=7.33 w=7 l=1
X105 vdd.t104 a_n6972_8799.t63 CSoutput.t66 vdd.t31 sky130_fd_pr__pfet_01v8 ad=1.32 pd=8.33 as=1.32 ps=8.33 w=8 l=0.5
X106 CSoutput.t20 a_n6972_8799.t64 vdd.t103 vdd.t59 sky130_fd_pr__pfet_01v8 ad=1.32 pd=8.33 as=1.32 ps=8.33 w=8 l=0.5
X107 CSoutput.t82 commonsourceibias.t99 gnd.t310 gnd.t273 sky130_fd_pr__nfet_01v8 ad=1.155 pd=7.33 as=1.155 ps=7.33 w=7 l=1
X108 vdd.t166 CSoutput.t184 output.t14 gnd.t155 sky130_fd_pr__nfet_01v8 ad=0.825 pd=5.33 as=1.95 ps=10.78 w=5 l=1
X109 a_n1996_n452.t33 minus.t10 a_n2903_n3924.t12 gnd.t3 sky130_fd_pr__nfet_01v8 ad=1.155 pd=7.33 as=1.155 ps=7.33 w=7 l=0.7
X110 vdd.t241 vdd.t239 vdd.t240 vdd.t226 sky130_fd_pr__pfet_01v8 ad=3.51 pd=18.78 as=0 ps=0 w=9 l=0.5
X111 vdd.t102 a_n6972_8799.t65 CSoutput.t23 vdd.t72 sky130_fd_pr__pfet_01v8 ad=1.32 pd=8.33 as=1.32 ps=8.33 w=8 l=0.5
X112 CSoutput.t95 commonsourceibias.t100 gnd.t309 gnd.t282 sky130_fd_pr__nfet_01v8 ad=1.155 pd=7.33 as=1.155 ps=7.33 w=7 l=1
X113 CSoutput.t79 a_n6972_8799.t66 vdd.t101 vdd.t34 sky130_fd_pr__pfet_01v8 ad=1.32 pd=8.33 as=3.12 ps=16.78 w=8 l=0.5
X114 vdd.t238 vdd.t235 vdd.t237 vdd.t236 sky130_fd_pr__pfet_01v8 ad=3.51 pd=18.78 as=0 ps=0 w=9 l=0.5
X115 gnd.t277 commonsourceibias.t101 CSoutput.t122 gnd.t276 sky130_fd_pr__nfet_01v8 ad=2.73 pd=14.78 as=1.155 ps=7.33 w=7 l=1
X116 commonsourceibias.t23 commonsourceibias.t22 gnd.t308 gnd.t229 sky130_fd_pr__nfet_01v8 ad=1.155 pd=7.33 as=1.155 ps=7.33 w=7 l=1
X117 CSoutput.t94 commonsourceibias.t102 gnd.t307 gnd.t278 sky130_fd_pr__nfet_01v8 ad=1.155 pd=7.33 as=2.73 ps=14.78 w=7 l=1
X118 a_n2903_n3924.t44 minus.t11 a_n1996_n452.t42 gnd.t179 sky130_fd_pr__nfet_01v8 ad=1.155 pd=7.33 as=1.155 ps=7.33 w=7 l=0.7
X119 CSoutput.t93 commonsourceibias.t103 gnd.t306 gnd.t305 sky130_fd_pr__nfet_01v8 ad=1.155 pd=7.33 as=1.155 ps=7.33 w=7 l=1
X120 vdd.t234 vdd.t232 vdd.t233 vdd.t179 sky130_fd_pr__pfet_01v8 ad=3.51 pd=18.78 as=0 ps=0 w=9 l=0.5
X121 vdd.t231 vdd.t229 vdd.t230 vdd.t222 sky130_fd_pr__pfet_01v8 ad=3.51 pd=18.78 as=0 ps=0 w=9 l=0.5
X122 vdd.t257 a_n1996_n452.t48 a_n1986_8322.t19 vdd.t256 sky130_fd_pr__pfet_01v8 ad=1.485 pd=9.33 as=1.485 ps=9.33 w=9 l=0.5
X123 a_n1986_8322.t18 a_n1996_n452.t49 vdd.t5 vdd.t4 sky130_fd_pr__pfet_01v8 ad=1.485 pd=9.33 as=1.485 ps=9.33 w=9 l=0.5
X124 a_n2903_n3924.t2 diffpairibias.t18 gnd.t5 gnd.t4 sky130_fd_pr__nfet_01v8 ad=2.73 pd=14.78 as=2.73 ps=14.78 w=7 l=1
X125 CSoutput.t77 a_n6972_8799.t67 vdd.t100 vdd.t99 sky130_fd_pr__pfet_01v8 ad=1.32 pd=8.33 as=1.32 ps=8.33 w=8 l=0.5
X126 gnd.t108 gnd.t106 gnd.t107 gnd.t54 sky130_fd_pr__nfet_01v8 ad=2.73 pd=14.78 as=0 ps=0 w=7 l=0.7
X127 gnd.t275 commonsourceibias.t104 CSoutput.t121 gnd.t251 sky130_fd_pr__nfet_01v8 ad=1.155 pd=7.33 as=1.155 ps=7.33 w=7 l=1
X128 vdd.t98 a_n6972_8799.t68 CSoutput.t73 vdd.t97 sky130_fd_pr__pfet_01v8 ad=1.32 pd=8.33 as=1.32 ps=8.33 w=8 l=0.5
X129 a_n2903_n3924.t45 minus.t12 a_n1996_n452.t43 gnd.t178 sky130_fd_pr__nfet_01v8 ad=1.155 pd=7.33 as=1.155 ps=7.33 w=7 l=0.7
X130 commonsourceibias.t21 commonsourceibias.t20 gnd.t304 gnd.t282 sky130_fd_pr__nfet_01v8 ad=1.155 pd=7.33 as=1.155 ps=7.33 w=7 l=1
X131 commonsourceibias.t19 commonsourceibias.t18 gnd.t303 gnd.t199 sky130_fd_pr__nfet_01v8 ad=1.155 pd=7.33 as=1.155 ps=7.33 w=7 l=1
X132 vdd.t145 a_n1996_n452.t50 a_n1808_13878.t18 vdd.t144 sky130_fd_pr__pfet_01v8 ad=1.485 pd=9.33 as=1.485 ps=9.33 w=9 l=0.5
X133 a_n1996_n452.t7 minus.t13 a_n2903_n3924.t10 gnd.t126 sky130_fd_pr__nfet_01v8 ad=1.155 pd=7.33 as=2.73 ps=14.78 w=7 l=0.7
X134 a_n2903_n3924.t25 plus.t10 a_n6972_8799.t20 gnd.t9 sky130_fd_pr__nfet_01v8 ad=1.155 pd=7.33 as=1.155 ps=7.33 w=7 l=0.7
X135 a_n2903_n3924.t21 plus.t11 a_n6972_8799.t19 gnd.t128 sky130_fd_pr__nfet_01v8 ad=1.155 pd=7.33 as=1.155 ps=7.33 w=7 l=0.7
X136 vdd.t228 vdd.t225 vdd.t227 vdd.t226 sky130_fd_pr__pfet_01v8 ad=3.51 pd=18.78 as=0 ps=0 w=9 l=0.5
X137 gnd.t302 commonsourceibias.t16 commonsourceibias.t17 gnd.t220 sky130_fd_pr__nfet_01v8 ad=1.155 pd=7.33 as=1.155 ps=7.33 w=7 l=1
X138 gnd.t301 commonsourceibias.t105 CSoutput.t92 gnd.t182 sky130_fd_pr__nfet_01v8 ad=1.155 pd=7.33 as=1.155 ps=7.33 w=7 l=1
X139 vdd.t96 a_n6972_8799.t69 CSoutput.t71 vdd.t95 sky130_fd_pr__pfet_01v8 ad=1.32 pd=8.33 as=1.32 ps=8.33 w=8 l=0.5
X140 vdd.t224 vdd.t221 vdd.t223 vdd.t222 sky130_fd_pr__pfet_01v8 ad=3.51 pd=18.78 as=0 ps=0 w=9 l=0.5
X141 gnd.t300 commonsourceibias.t14 commonsourceibias.t15 gnd.t299 sky130_fd_pr__nfet_01v8 ad=1.155 pd=7.33 as=1.155 ps=7.33 w=7 l=1
X142 outputibias.t1 outputibias.t0 gnd.t135 gnd.t134 sky130_fd_pr__nfet_01v8 ad=2.34 pd=12.78 as=2.34 ps=12.78 w=6 l=2
X143 a_n6972_8799.t18 plus.t12 a_n2903_n3924.t13 gnd.t141 sky130_fd_pr__nfet_01v8 ad=1.155 pd=7.33 as=1.155 ps=7.33 w=7 l=0.7
X144 a_n6972_8799.t17 plus.t13 a_n2903_n3924.t15 gnd.t0 sky130_fd_pr__nfet_01v8 ad=1.155 pd=7.33 as=2.73 ps=14.78 w=7 l=0.7
X145 vdd.t220 vdd.t217 vdd.t219 vdd.t218 sky130_fd_pr__pfet_01v8 ad=3.51 pd=18.78 as=0 ps=0 w=9 l=0.5
X146 a_n1986_8322.t17 a_n1996_n452.t51 vdd.t141 vdd.t140 sky130_fd_pr__pfet_01v8 ad=3.51 pd=18.78 as=1.485 ps=9.33 w=9 l=0.5
X147 commonsourceibias.t13 commonsourceibias.t12 gnd.t298 gnd.t235 sky130_fd_pr__nfet_01v8 ad=1.155 pd=7.33 as=1.155 ps=7.33 w=7 l=1
X148 gnd.t297 commonsourceibias.t106 CSoutput.t91 gnd.t238 sky130_fd_pr__nfet_01v8 ad=1.155 pd=7.33 as=1.155 ps=7.33 w=7 l=1
X149 gnd.t296 commonsourceibias.t107 CSoutput.t90 gnd.t295 sky130_fd_pr__nfet_01v8 ad=1.155 pd=7.33 as=1.155 ps=7.33 w=7 l=1
X150 a_n6972_8799.t0 a_n1996_n452.t52 a_n1986_8322.t8 vdd.t0 sky130_fd_pr__pfet_01v8 ad=1.485 pd=9.33 as=1.485 ps=9.33 w=9 l=0.5
X151 gnd.t294 commonsourceibias.t108 CSoutput.t105 gnd.t249 sky130_fd_pr__nfet_01v8 ad=2.73 pd=14.78 as=1.155 ps=7.33 w=7 l=1
X152 diffpairibias.t11 diffpairibias.t10 gnd.t7 gnd.t6 sky130_fd_pr__nfet_01v8 ad=2.73 pd=14.78 as=2.73 ps=14.78 w=7 l=1
X153 a_n1996_n452.t41 minus.t14 a_n2903_n3924.t43 gnd.t127 sky130_fd_pr__nfet_01v8 ad=1.155 pd=7.33 as=1.155 ps=7.33 w=7 l=0.7
X154 a_n1996_n452.t27 a_n1996_n452.t26 a_n1808_13878.t6 vdd.t143 sky130_fd_pr__pfet_01v8 ad=1.485 pd=9.33 as=1.485 ps=9.33 w=9 l=0.5
X155 vdd.t94 a_n6972_8799.t70 CSoutput.t68 vdd.t31 sky130_fd_pr__pfet_01v8 ad=1.32 pd=8.33 as=1.32 ps=8.33 w=8 l=0.5
X156 a_n6972_8799.t1 a_n1996_n452.t53 a_n1986_8322.t7 vdd.t6 sky130_fd_pr__pfet_01v8 ad=1.485 pd=9.33 as=1.485 ps=9.33 w=9 l=0.5
X157 CSoutput.t15 a_n6972_8799.t71 vdd.t93 vdd.t59 sky130_fd_pr__pfet_01v8 ad=1.32 pd=8.33 as=1.32 ps=8.33 w=8 l=0.5
X158 gnd.t293 commonsourceibias.t109 CSoutput.t104 gnd.t261 sky130_fd_pr__nfet_01v8 ad=1.155 pd=7.33 as=1.155 ps=7.33 w=7 l=1
X159 output.t3 outputibias.t8 gnd.t177 gnd.t176 sky130_fd_pr__nfet_01v8 ad=2.34 pd=12.78 as=2.34 ps=12.78 w=6 l=2
X160 a_n1808_13878.t5 a_n1996_n452.t14 a_n1996_n452.t15 vdd.t175 sky130_fd_pr__pfet_01v8 ad=1.485 pd=9.33 as=1.485 ps=9.33 w=9 l=0.5
X161 gnd.t105 gnd.t103 minus.t4 gnd.t104 sky130_fd_pr__nfet_01v8 ad=0.165 pd=1.33 as=0.39 ps=2.78 w=1 l=0.5
X162 a_n2903_n3924.t34 minus.t15 a_n1996_n452.t34 gnd.t136 sky130_fd_pr__nfet_01v8 ad=1.155 pd=7.33 as=1.155 ps=7.33 w=7 l=0.7
X163 gnd.t292 commonsourceibias.t110 CSoutput.t103 gnd.t291 sky130_fd_pr__nfet_01v8 ad=1.155 pd=7.33 as=1.155 ps=7.33 w=7 l=1
X164 CSoutput.t102 commonsourceibias.t111 gnd.t290 gnd.t288 sky130_fd_pr__nfet_01v8 ad=1.155 pd=7.33 as=1.155 ps=7.33 w=7 l=1
X165 commonsourceibias.t25 commonsourceibias.t24 gnd.t289 gnd.t288 sky130_fd_pr__nfet_01v8 ad=1.155 pd=7.33 as=1.155 ps=7.33 w=7 l=1
X166 CSoutput.t61 a_n6972_8799.t72 vdd.t92 vdd.t83 sky130_fd_pr__pfet_01v8 ad=1.32 pd=8.33 as=1.32 ps=8.33 w=8 l=0.5
X167 gnd.t287 commonsourceibias.t112 CSoutput.t101 gnd.t190 sky130_fd_pr__nfet_01v8 ad=1.155 pd=7.33 as=1.155 ps=7.33 w=7 l=1
X168 vdd.t152 a_n1996_n452.t54 a_n1986_8322.t16 vdd.t151 sky130_fd_pr__pfet_01v8 ad=1.485 pd=9.33 as=3.51 ps=18.78 w=9 l=0.5
X169 CSoutput.t100 commonsourceibias.t113 gnd.t286 gnd.t212 sky130_fd_pr__nfet_01v8 ad=1.155 pd=7.33 as=1.155 ps=7.33 w=7 l=1
X170 vdd.t91 a_n6972_8799.t73 CSoutput.t42 vdd.t81 sky130_fd_pr__pfet_01v8 ad=1.32 pd=8.33 as=1.32 ps=8.33 w=8 l=0.5
X171 CSoutput.t55 a_n6972_8799.t74 vdd.t90 vdd.t79 sky130_fd_pr__pfet_01v8 ad=1.32 pd=8.33 as=1.32 ps=8.33 w=8 l=0.5
X172 vdd.t89 a_n6972_8799.t75 CSoutput.t52 vdd.t11 sky130_fd_pr__pfet_01v8 ad=3.12 pd=16.78 as=1.32 ps=8.33 w=8 l=0.5
X173 a_n2903_n3924.t17 plus.t14 a_n6972_8799.t16 gnd.t15 sky130_fd_pr__nfet_01v8 ad=2.73 pd=14.78 as=1.155 ps=7.33 w=7 l=0.7
X174 gnd.t102 gnd.t100 minus.t3 gnd.t101 sky130_fd_pr__nfet_01v8 ad=0.165 pd=1.33 as=0.165 ps=1.33 w=1 l=0.5
X175 CSoutput.t99 commonsourceibias.t114 gnd.t285 gnd.t273 sky130_fd_pr__nfet_01v8 ad=1.155 pd=7.33 as=1.155 ps=7.33 w=7 l=1
X176 a_n2903_n3924.t37 diffpairibias.t19 gnd.t169 gnd.t168 sky130_fd_pr__nfet_01v8 ad=2.73 pd=14.78 as=2.73 ps=14.78 w=7 l=1
X177 gnd.t99 gnd.t96 gnd.t98 gnd.t97 sky130_fd_pr__nfet_01v8 ad=2.73 pd=14.78 as=0 ps=0 w=7 l=1
X178 a_n2903_n3924.t0 diffpairibias.t20 gnd.t2 gnd.t1 sky130_fd_pr__nfet_01v8 ad=2.73 pd=14.78 as=2.73 ps=14.78 w=7 l=1
X179 vdd.t165 CSoutput.t185 output.t13 gnd.t154 sky130_fd_pr__nfet_01v8 ad=0.825 pd=5.33 as=0.825 ps=5.33 w=5 l=1
X180 CSoutput.t98 commonsourceibias.t115 gnd.t284 gnd.t192 sky130_fd_pr__nfet_01v8 ad=1.155 pd=7.33 as=1.155 ps=7.33 w=7 l=1
X181 CSoutput.t97 commonsourceibias.t116 gnd.t283 gnd.t282 sky130_fd_pr__nfet_01v8 ad=1.155 pd=7.33 as=1.155 ps=7.33 w=7 l=1
X182 a_n6972_8799.t15 plus.t15 a_n2903_n3924.t16 gnd.t131 sky130_fd_pr__nfet_01v8 ad=1.155 pd=7.33 as=1.155 ps=7.33 w=7 l=0.7
X183 vdd.t88 a_n6972_8799.t76 CSoutput.t162 vdd.t44 sky130_fd_pr__pfet_01v8 ad=1.32 pd=8.33 as=1.32 ps=8.33 w=8 l=0.5
X184 gnd.t281 commonsourceibias.t117 CSoutput.t96 gnd.t276 sky130_fd_pr__nfet_01v8 ad=2.73 pd=14.78 as=1.155 ps=7.33 w=7 l=1
X185 gnd.t280 commonsourceibias.t118 CSoutput.t124 gnd.t253 sky130_fd_pr__nfet_01v8 ad=1.155 pd=7.33 as=1.155 ps=7.33 w=7 l=1
X186 CSoutput.t123 commonsourceibias.t119 gnd.t279 gnd.t278 sky130_fd_pr__nfet_01v8 ad=1.155 pd=7.33 as=2.73 ps=14.78 w=7 l=1
X187 commonsourceibias.t35 commonsourceibias.t34 gnd.t274 gnd.t273 sky130_fd_pr__nfet_01v8 ad=1.155 pd=7.33 as=1.155 ps=7.33 w=7 l=1
X188 CSoutput.t120 commonsourceibias.t120 gnd.t272 gnd.t227 sky130_fd_pr__nfet_01v8 ad=1.155 pd=7.33 as=1.155 ps=7.33 w=7 l=1
X189 gnd.t95 gnd.t93 gnd.t94 gnd.t21 sky130_fd_pr__nfet_01v8 ad=2.73 pd=14.78 as=0 ps=0 w=7 l=1
X190 gnd.t92 gnd.t89 gnd.t91 gnd.t90 sky130_fd_pr__nfet_01v8 ad=2.34 pd=12.78 as=0 ps=0 w=6 l=2
X191 gnd.t271 commonsourceibias.t121 CSoutput.t119 gnd.t251 sky130_fd_pr__nfet_01v8 ad=1.155 pd=7.33 as=1.155 ps=7.33 w=7 l=1
X192 CSoutput.t7 a_n6972_8799.t77 vdd.t87 vdd.t86 sky130_fd_pr__pfet_01v8 ad=1.32 pd=8.33 as=1.32 ps=8.33 w=8 l=0.5
X193 CSoutput.t19 a_n6972_8799.t78 vdd.t85 vdd.t66 sky130_fd_pr__pfet_01v8 ad=1.32 pd=8.33 as=1.32 ps=8.33 w=8 l=0.5
X194 gnd.t88 gnd.t86 gnd.t87 gnd.t50 sky130_fd_pr__nfet_01v8 ad=2.73 pd=14.78 as=0 ps=0 w=7 l=1
X195 CSoutput.t118 commonsourceibias.t122 gnd.t270 gnd.t244 sky130_fd_pr__nfet_01v8 ad=1.155 pd=7.33 as=1.155 ps=7.33 w=7 l=1
X196 diffpairibias.t9 diffpairibias.t8 gnd.t343 gnd.t342 sky130_fd_pr__nfet_01v8 ad=2.73 pd=14.78 as=2.73 ps=14.78 w=7 l=1
X197 a_n1808_13878.t17 a_n1996_n452.t55 vdd.t150 vdd.t149 sky130_fd_pr__pfet_01v8 ad=1.485 pd=9.33 as=1.485 ps=9.33 w=9 l=0.5
X198 vdd.t170 a_n1996_n452.t56 a_n1808_13878.t16 vdd.t169 sky130_fd_pr__pfet_01v8 ad=1.485 pd=9.33 as=1.485 ps=9.33 w=9 l=0.5
X199 vdd.t216 vdd.t214 vdd.t215 vdd.t198 sky130_fd_pr__pfet_01v8 ad=3.12 pd=16.78 as=0 ps=0 w=8 l=0.5
X200 CSoutput.t54 a_n6972_8799.t79 vdd.t84 vdd.t83 sky130_fd_pr__pfet_01v8 ad=1.32 pd=8.33 as=1.32 ps=8.33 w=8 l=0.5
X201 vdd.t82 a_n6972_8799.t80 CSoutput.t81 vdd.t81 sky130_fd_pr__pfet_01v8 ad=1.32 pd=8.33 as=1.32 ps=8.33 w=8 l=0.5
X202 gnd.t269 commonsourceibias.t123 CSoutput.t117 gnd.t241 sky130_fd_pr__nfet_01v8 ad=1.155 pd=7.33 as=1.155 ps=7.33 w=7 l=1
X203 CSoutput.t116 commonsourceibias.t124 gnd.t268 gnd.t188 sky130_fd_pr__nfet_01v8 ad=1.155 pd=7.33 as=2.73 ps=14.78 w=7 l=1
X204 gnd.t267 commonsourceibias.t32 commonsourceibias.t33 gnd.t210 sky130_fd_pr__nfet_01v8 ad=1.155 pd=7.33 as=1.155 ps=7.33 w=7 l=1
X205 gnd.t266 commonsourceibias.t125 CSoutput.t115 gnd.t238 sky130_fd_pr__nfet_01v8 ad=1.155 pd=7.33 as=1.155 ps=7.33 w=7 l=1
X206 gnd.t265 commonsourceibias.t126 CSoutput.t114 gnd.t249 sky130_fd_pr__nfet_01v8 ad=2.73 pd=14.78 as=1.155 ps=7.33 w=7 l=1
X207 a_n2903_n3924.t40 minus.t16 a_n1996_n452.t38 gnd.t163 sky130_fd_pr__nfet_01v8 ad=1.155 pd=7.33 as=1.155 ps=7.33 w=7 l=0.7
X208 CSoutput.t173 a_n6972_8799.t81 vdd.t80 vdd.t79 sky130_fd_pr__pfet_01v8 ad=1.32 pd=8.33 as=1.32 ps=8.33 w=8 l=0.5
X209 vdd.t78 a_n6972_8799.t82 CSoutput.t35 vdd.t11 sky130_fd_pr__pfet_01v8 ad=3.12 pd=16.78 as=1.32 ps=8.33 w=8 l=0.5
X210 gnd.t264 commonsourceibias.t127 CSoutput.t113 gnd.t261 sky130_fd_pr__nfet_01v8 ad=1.155 pd=7.33 as=1.155 ps=7.33 w=7 l=1
X211 a_n1986_8322.t6 a_n1996_n452.t57 a_n6972_8799.t31 vdd.t255 sky130_fd_pr__pfet_01v8 ad=1.485 pd=9.33 as=1.485 ps=9.33 w=9 l=0.5
X212 vdd.t161 CSoutput.t186 output.t12 gnd.t153 sky130_fd_pr__nfet_01v8 ad=0.825 pd=5.33 as=0.825 ps=5.33 w=5 l=1
X213 CSoutput.t64 a_n6972_8799.t83 vdd.t77 vdd.t41 sky130_fd_pr__pfet_01v8 ad=1.32 pd=8.33 as=1.32 ps=8.33 w=8 l=0.5
X214 diffpairibias.t7 diffpairibias.t6 gnd.t140 gnd.t139 sky130_fd_pr__nfet_01v8 ad=2.73 pd=14.78 as=2.73 ps=14.78 w=7 l=1
X215 CSoutput.t112 commonsourceibias.t128 gnd.t263 gnd.t235 sky130_fd_pr__nfet_01v8 ad=1.155 pd=7.33 as=1.155 ps=7.33 w=7 l=1
X216 vdd.t76 a_n6972_8799.t84 CSoutput.t80 vdd.t75 sky130_fd_pr__pfet_01v8 ad=1.32 pd=8.33 as=1.32 ps=8.33 w=8 l=0.5
X217 a_n1996_n452.t36 minus.t17 a_n2903_n3924.t36 gnd.t167 sky130_fd_pr__nfet_01v8 ad=1.155 pd=7.33 as=1.155 ps=7.33 w=7 l=0.7
X218 CSoutput.t172 a_n6972_8799.t85 vdd.t74 vdd.t25 sky130_fd_pr__pfet_01v8 ad=1.32 pd=8.33 as=1.32 ps=8.33 w=8 l=0.5
X219 a_n1996_n452.t3 minus.t18 a_n2903_n3924.t5 gnd.t10 sky130_fd_pr__nfet_01v8 ad=1.155 pd=7.33 as=1.155 ps=7.33 w=7 l=0.7
X220 vdd.t73 a_n6972_8799.t86 CSoutput.t56 vdd.t72 sky130_fd_pr__pfet_01v8 ad=1.32 pd=8.33 as=1.32 ps=8.33 w=8 l=0.5
X221 plus.t2 gnd.t83 gnd.t85 gnd.t84 sky130_fd_pr__nfet_01v8 ad=0.165 pd=1.33 as=0.165 ps=1.33 w=1 l=0.5
X222 vdd.t172 a_n1996_n452.t58 a_n1986_8322.t15 vdd.t171 sky130_fd_pr__pfet_01v8 ad=1.485 pd=9.33 as=3.51 ps=18.78 w=9 l=0.5
X223 gnd.t262 commonsourceibias.t30 commonsourceibias.t31 gnd.t261 sky130_fd_pr__nfet_01v8 ad=1.155 pd=7.33 as=1.155 ps=7.33 w=7 l=1
X224 vdd.t71 a_n6972_8799.t87 CSoutput.t163 vdd.t44 sky130_fd_pr__pfet_01v8 ad=1.32 pd=8.33 as=1.32 ps=8.33 w=8 l=0.5
X225 gnd.t82 gnd.t80 gnd.t81 gnd.t50 sky130_fd_pr__nfet_01v8 ad=2.73 pd=14.78 as=0 ps=0 w=7 l=1
X226 CSoutput.t111 commonsourceibias.t129 gnd.t260 gnd.t186 sky130_fd_pr__nfet_01v8 ad=1.155 pd=7.33 as=1.155 ps=7.33 w=7 l=1
X227 a_n6972_8799.t14 plus.t16 a_n2903_n3924.t19 gnd.t14 sky130_fd_pr__nfet_01v8 ad=1.155 pd=7.33 as=1.155 ps=7.33 w=7 l=0.7
X228 gnd.t79 gnd.t77 minus.t2 gnd.t78 sky130_fd_pr__nfet_01v8 ad=0.39 pd=2.78 as=0.165 ps=1.33 w=1 l=0.5
X229 gnd.t259 commonsourceibias.t130 CSoutput.t110 gnd.t190 sky130_fd_pr__nfet_01v8 ad=1.155 pd=7.33 as=1.155 ps=7.33 w=7 l=1
X230 a_n2903_n3924.t41 minus.t19 a_n1996_n452.t39 gnd.t142 sky130_fd_pr__nfet_01v8 ad=1.155 pd=7.33 as=1.155 ps=7.33 w=7 l=0.7
X231 CSoutput.t109 commonsourceibias.t131 gnd.t258 gnd.t212 sky130_fd_pr__nfet_01v8 ad=1.155 pd=7.33 as=1.155 ps=7.33 w=7 l=1
X232 a_n1808_13878.t15 a_n1996_n452.t59 vdd.t177 vdd.t176 sky130_fd_pr__pfet_01v8 ad=3.51 pd=18.78 as=1.485 ps=9.33 w=9 l=0.5
X233 vdd.t70 a_n6972_8799.t88 CSoutput.t57 vdd.t56 sky130_fd_pr__pfet_01v8 ad=1.32 pd=8.33 as=1.32 ps=8.33 w=8 l=0.5
X234 CSoutput.t49 a_n6972_8799.t89 vdd.t69 vdd.t66 sky130_fd_pr__pfet_01v8 ad=1.32 pd=8.33 as=1.32 ps=8.33 w=8 l=0.5
X235 CSoutput.t1 a_n6972_8799.t90 vdd.t68 vdd.t54 sky130_fd_pr__pfet_01v8 ad=1.32 pd=8.33 as=1.32 ps=8.33 w=8 l=0.5
X236 gnd.t257 commonsourceibias.t28 commonsourceibias.t29 gnd.t222 sky130_fd_pr__nfet_01v8 ad=1.155 pd=7.33 as=1.155 ps=7.33 w=7 l=1
X237 gnd.t76 gnd.t73 gnd.t75 gnd.t74 sky130_fd_pr__nfet_01v8 ad=2.73 pd=14.78 as=0 ps=0 w=7 l=1
X238 minus.t1 gnd.t70 gnd.t72 gnd.t71 sky130_fd_pr__nfet_01v8 ad=0.165 pd=1.33 as=0.165 ps=1.33 w=1 l=0.5
X239 vdd.t213 vdd.t211 vdd.t212 vdd.t198 sky130_fd_pr__pfet_01v8 ad=3.12 pd=16.78 as=0 ps=0 w=8 l=0.5
X240 a_n2903_n3924.t33 diffpairibias.t21 gnd.t133 gnd.t132 sky130_fd_pr__nfet_01v8 ad=2.73 pd=14.78 as=2.73 ps=14.78 w=7 l=1
X241 CSoutput.t108 commonsourceibias.t132 gnd.t256 gnd.t229 sky130_fd_pr__nfet_01v8 ad=1.155 pd=7.33 as=1.155 ps=7.33 w=7 l=1
X242 vdd.t259 a_n1996_n452.t60 a_n1986_8322.t14 vdd.t258 sky130_fd_pr__pfet_01v8 ad=1.485 pd=9.33 as=1.485 ps=9.33 w=9 l=0.5
X243 a_n1986_8322.t5 a_n1996_n452.t61 a_n6972_8799.t27 vdd.t143 sky130_fd_pr__pfet_01v8 ad=1.485 pd=9.33 as=1.485 ps=9.33 w=9 l=0.5
X244 CSoutput.t187 a_n1986_8322.t21 sky130_fd_pr__cap_mim_m3_1 l=12 w=12
X245 CSoutput.t168 a_n6972_8799.t91 vdd.t67 vdd.t66 sky130_fd_pr__pfet_01v8 ad=1.32 pd=8.33 as=1.32 ps=8.33 w=8 l=0.5
X246 vdd.t65 a_n6972_8799.t92 CSoutput.t170 vdd.t9 sky130_fd_pr__pfet_01v8 ad=1.32 pd=8.33 as=1.32 ps=8.33 w=8 l=0.5
X247 vdd.t210 vdd.t208 vdd.t209 vdd.t191 sky130_fd_pr__pfet_01v8 ad=3.12 pd=16.78 as=0 ps=0 w=8 l=0.5
X248 CSoutput.t62 a_n6972_8799.t93 vdd.t64 vdd.t29 sky130_fd_pr__pfet_01v8 ad=1.32 pd=8.33 as=1.32 ps=8.33 w=8 l=0.5