* NGSPICE file created from diffpair.ext - technology: sky130A

.subckt diffpair minus drain_right drain_left source plus
X0 source.t45 plus.t0 drain_left.t12 a_n4174_n2088# sky130_fd_pr__nfet_01v8 ad=0.99 pd=6.33 as=0.99 ps=6.33 w=6 l=1
X1 source.t7 minus.t0 drain_right.t23 a_n4174_n2088# sky130_fd_pr__nfet_01v8 ad=0.99 pd=6.33 as=0.99 ps=6.33 w=6 l=1
X2 drain_right.t22 minus.t1 source.t18 a_n4174_n2088# sky130_fd_pr__nfet_01v8 ad=0.99 pd=6.33 as=0.99 ps=6.33 w=6 l=1
X3 a_n4174_n2088# a_n4174_n2088# a_n4174_n2088# a_n4174_n2088# sky130_fd_pr__nfet_01v8 ad=2.34 pd=12.78 as=18.72 ps=102.24 w=6 l=1
X4 source.t44 plus.t1 drain_left.t15 a_n4174_n2088# sky130_fd_pr__nfet_01v8 ad=0.99 pd=6.33 as=0.99 ps=6.33 w=6 l=1
X5 drain_left.t6 plus.t2 source.t43 a_n4174_n2088# sky130_fd_pr__nfet_01v8 ad=0.99 pd=6.33 as=0.99 ps=6.33 w=6 l=1
X6 source.t15 minus.t2 drain_right.t21 a_n4174_n2088# sky130_fd_pr__nfet_01v8 ad=2.34 pd=12.78 as=0.99 ps=6.33 w=6 l=1
X7 drain_left.t13 plus.t3 source.t42 a_n4174_n2088# sky130_fd_pr__nfet_01v8 ad=0.99 pd=6.33 as=0.99 ps=6.33 w=6 l=1
X8 drain_left.t10 plus.t4 source.t41 a_n4174_n2088# sky130_fd_pr__nfet_01v8 ad=0.99 pd=6.33 as=0.99 ps=6.33 w=6 l=1
X9 drain_right.t20 minus.t3 source.t19 a_n4174_n2088# sky130_fd_pr__nfet_01v8 ad=0.99 pd=6.33 as=0.99 ps=6.33 w=6 l=1
X10 drain_right.t19 minus.t4 source.t20 a_n4174_n2088# sky130_fd_pr__nfet_01v8 ad=0.99 pd=6.33 as=0.99 ps=6.33 w=6 l=1
X11 source.t16 minus.t5 drain_right.t18 a_n4174_n2088# sky130_fd_pr__nfet_01v8 ad=0.99 pd=6.33 as=0.99 ps=6.33 w=6 l=1
X12 drain_left.t21 plus.t5 source.t40 a_n4174_n2088# sky130_fd_pr__nfet_01v8 ad=0.99 pd=6.33 as=0.99 ps=6.33 w=6 l=1
X13 source.t39 plus.t6 drain_left.t5 a_n4174_n2088# sky130_fd_pr__nfet_01v8 ad=2.34 pd=12.78 as=0.99 ps=6.33 w=6 l=1
X14 drain_left.t14 plus.t7 source.t38 a_n4174_n2088# sky130_fd_pr__nfet_01v8 ad=0.99 pd=6.33 as=0.99 ps=6.33 w=6 l=1
X15 drain_left.t23 plus.t8 source.t37 a_n4174_n2088# sky130_fd_pr__nfet_01v8 ad=0.99 pd=6.33 as=2.34 ps=12.78 w=6 l=1
X16 source.t36 plus.t9 drain_left.t8 a_n4174_n2088# sky130_fd_pr__nfet_01v8 ad=0.99 pd=6.33 as=0.99 ps=6.33 w=6 l=1
X17 drain_right.t17 minus.t6 source.t14 a_n4174_n2088# sky130_fd_pr__nfet_01v8 ad=0.99 pd=6.33 as=0.99 ps=6.33 w=6 l=1
X18 source.t12 minus.t7 drain_right.t16 a_n4174_n2088# sky130_fd_pr__nfet_01v8 ad=0.99 pd=6.33 as=0.99 ps=6.33 w=6 l=1
X19 source.t35 plus.t10 drain_left.t1 a_n4174_n2088# sky130_fd_pr__nfet_01v8 ad=0.99 pd=6.33 as=0.99 ps=6.33 w=6 l=1
X20 drain_left.t11 plus.t11 source.t34 a_n4174_n2088# sky130_fd_pr__nfet_01v8 ad=0.99 pd=6.33 as=0.99 ps=6.33 w=6 l=1
X21 source.t33 plus.t12 drain_left.t9 a_n4174_n2088# sky130_fd_pr__nfet_01v8 ad=0.99 pd=6.33 as=0.99 ps=6.33 w=6 l=1
X22 drain_left.t4 plus.t13 source.t32 a_n4174_n2088# sky130_fd_pr__nfet_01v8 ad=0.99 pd=6.33 as=0.99 ps=6.33 w=6 l=1
X23 drain_right.t15 minus.t8 source.t21 a_n4174_n2088# sky130_fd_pr__nfet_01v8 ad=0.99 pd=6.33 as=0.99 ps=6.33 w=6 l=1
X24 drain_left.t19 plus.t14 source.t31 a_n4174_n2088# sky130_fd_pr__nfet_01v8 ad=0.99 pd=6.33 as=0.99 ps=6.33 w=6 l=1
X25 source.t30 plus.t15 drain_left.t18 a_n4174_n2088# sky130_fd_pr__nfet_01v8 ad=0.99 pd=6.33 as=0.99 ps=6.33 w=6 l=1
X26 source.t0 minus.t9 drain_right.t14 a_n4174_n2088# sky130_fd_pr__nfet_01v8 ad=0.99 pd=6.33 as=0.99 ps=6.33 w=6 l=1
X27 source.t29 plus.t16 drain_left.t22 a_n4174_n2088# sky130_fd_pr__nfet_01v8 ad=0.99 pd=6.33 as=0.99 ps=6.33 w=6 l=1
X28 drain_right.t13 minus.t10 source.t10 a_n4174_n2088# sky130_fd_pr__nfet_01v8 ad=0.99 pd=6.33 as=0.99 ps=6.33 w=6 l=1
X29 source.t28 plus.t17 drain_left.t20 a_n4174_n2088# sky130_fd_pr__nfet_01v8 ad=0.99 pd=6.33 as=0.99 ps=6.33 w=6 l=1
X30 source.t27 plus.t18 drain_left.t16 a_n4174_n2088# sky130_fd_pr__nfet_01v8 ad=0.99 pd=6.33 as=0.99 ps=6.33 w=6 l=1
X31 drain_right.t12 minus.t11 source.t8 a_n4174_n2088# sky130_fd_pr__nfet_01v8 ad=0.99 pd=6.33 as=2.34 ps=12.78 w=6 l=1
X32 drain_right.t11 minus.t12 source.t17 a_n4174_n2088# sky130_fd_pr__nfet_01v8 ad=0.99 pd=6.33 as=0.99 ps=6.33 w=6 l=1
X33 drain_left.t17 plus.t19 source.t26 a_n4174_n2088# sky130_fd_pr__nfet_01v8 ad=0.99 pd=6.33 as=2.34 ps=12.78 w=6 l=1
X34 source.t47 minus.t13 drain_right.t10 a_n4174_n2088# sky130_fd_pr__nfet_01v8 ad=0.99 pd=6.33 as=0.99 ps=6.33 w=6 l=1
X35 drain_right.t9 minus.t14 source.t46 a_n4174_n2088# sky130_fd_pr__nfet_01v8 ad=0.99 pd=6.33 as=2.34 ps=12.78 w=6 l=1
X36 source.t6 minus.t15 drain_right.t8 a_n4174_n2088# sky130_fd_pr__nfet_01v8 ad=2.34 pd=12.78 as=0.99 ps=6.33 w=6 l=1
X37 source.t13 minus.t16 drain_right.t7 a_n4174_n2088# sky130_fd_pr__nfet_01v8 ad=0.99 pd=6.33 as=0.99 ps=6.33 w=6 l=1
X38 drain_right.t6 minus.t17 source.t5 a_n4174_n2088# sky130_fd_pr__nfet_01v8 ad=0.99 pd=6.33 as=0.99 ps=6.33 w=6 l=1
X39 drain_right.t5 minus.t18 source.t4 a_n4174_n2088# sky130_fd_pr__nfet_01v8 ad=0.99 pd=6.33 as=0.99 ps=6.33 w=6 l=1
X40 drain_right.t4 minus.t19 source.t3 a_n4174_n2088# sky130_fd_pr__nfet_01v8 ad=0.99 pd=6.33 as=0.99 ps=6.33 w=6 l=1
X41 drain_left.t7 plus.t20 source.t25 a_n4174_n2088# sky130_fd_pr__nfet_01v8 ad=0.99 pd=6.33 as=0.99 ps=6.33 w=6 l=1
X42 drain_left.t2 plus.t21 source.t24 a_n4174_n2088# sky130_fd_pr__nfet_01v8 ad=0.99 pd=6.33 as=0.99 ps=6.33 w=6 l=1
X43 a_n4174_n2088# a_n4174_n2088# a_n4174_n2088# a_n4174_n2088# sky130_fd_pr__nfet_01v8 ad=2.34 pd=12.78 as=0 ps=0 w=6 l=1
X44 a_n4174_n2088# a_n4174_n2088# a_n4174_n2088# a_n4174_n2088# sky130_fd_pr__nfet_01v8 ad=2.34 pd=12.78 as=0 ps=0 w=6 l=1
X45 source.t11 minus.t20 drain_right.t3 a_n4174_n2088# sky130_fd_pr__nfet_01v8 ad=0.99 pd=6.33 as=0.99 ps=6.33 w=6 l=1
X46 source.t2 minus.t21 drain_right.t2 a_n4174_n2088# sky130_fd_pr__nfet_01v8 ad=0.99 pd=6.33 as=0.99 ps=6.33 w=6 l=1
X47 source.t23 plus.t22 drain_left.t0 a_n4174_n2088# sky130_fd_pr__nfet_01v8 ad=0.99 pd=6.33 as=0.99 ps=6.33 w=6 l=1
X48 source.t9 minus.t22 drain_right.t1 a_n4174_n2088# sky130_fd_pr__nfet_01v8 ad=0.99 pd=6.33 as=0.99 ps=6.33 w=6 l=1
X49 source.t1 minus.t23 drain_right.t0 a_n4174_n2088# sky130_fd_pr__nfet_01v8 ad=0.99 pd=6.33 as=0.99 ps=6.33 w=6 l=1
X50 a_n4174_n2088# a_n4174_n2088# a_n4174_n2088# a_n4174_n2088# sky130_fd_pr__nfet_01v8 ad=2.34 pd=12.78 as=0 ps=0 w=6 l=1
X51 source.t22 plus.t23 drain_left.t3 a_n4174_n2088# sky130_fd_pr__nfet_01v8 ad=2.34 pd=12.78 as=0.99 ps=6.33 w=6 l=1
R0 plus.n15 plus.t23 205.905
R1 plus.n79 plus.t19 205.905
R2 plus.n61 plus.t8 183.883
R3 plus.n124 plus.t6 183.883
R4 plus.n17 plus.n14 161.3
R5 plus.n19 plus.n18 161.3
R6 plus.n21 plus.n20 161.3
R7 plus.n22 plus.n12 161.3
R8 plus.n24 plus.n23 161.3
R9 plus.n26 plus.n25 161.3
R10 plus.n27 plus.n10 161.3
R11 plus.n29 plus.n28 161.3
R12 plus.n31 plus.n30 161.3
R13 plus.n32 plus.n8 161.3
R14 plus.n35 plus.n34 161.3
R15 plus.n36 plus.n7 161.3
R16 plus.n38 plus.n37 161.3
R17 plus.n40 plus.n6 161.3
R18 plus.n43 plus.n42 161.3
R19 plus.n44 plus.n5 161.3
R20 plus.n46 plus.n45 161.3
R21 plus.n47 plus.n4 161.3
R22 plus.n50 plus.n49 161.3
R23 plus.n51 plus.n3 161.3
R24 plus.n53 plus.n52 161.3
R25 plus.n55 plus.n2 161.3
R26 plus.n57 plus.n56 161.3
R27 plus.n59 plus.n58 161.3
R28 plus.n60 plus.n0 161.3
R29 plus.n81 plus.n78 161.3
R30 plus.n83 plus.n82 161.3
R31 plus.n85 plus.n84 161.3
R32 plus.n86 plus.n76 161.3
R33 plus.n88 plus.n87 161.3
R34 plus.n90 plus.n89 161.3
R35 plus.n91 plus.n74 161.3
R36 plus.n93 plus.n92 161.3
R37 plus.n95 plus.n94 161.3
R38 plus.n96 plus.n72 161.3
R39 plus.n99 plus.n98 161.3
R40 plus.n100 plus.n71 161.3
R41 plus.n102 plus.n101 161.3
R42 plus.n104 plus.n69 161.3
R43 plus.n106 plus.n105 161.3
R44 plus.n107 plus.n68 161.3
R45 plus.n109 plus.n108 161.3
R46 plus.n110 plus.n67 161.3
R47 plus.n113 plus.n112 161.3
R48 plus.n114 plus.n66 161.3
R49 plus.n116 plus.n115 161.3
R50 plus.n118 plus.n65 161.3
R51 plus.n120 plus.n119 161.3
R52 plus.n122 plus.n121 161.3
R53 plus.n123 plus.n63 161.3
R54 plus.n1 plus.t10 144.601
R55 plus.n54 plus.t14 144.601
R56 plus.n48 plus.t9 144.601
R57 plus.n41 plus.t11 144.601
R58 plus.n39 plus.t15 144.601
R59 plus.n33 plus.t7 144.601
R60 plus.n9 plus.t12 144.601
R61 plus.n11 plus.t4 144.601
R62 plus.n13 plus.t0 144.601
R63 plus.n16 plus.t2 144.601
R64 plus.n64 plus.t21 144.601
R65 plus.n117 plus.t1 144.601
R66 plus.n111 plus.t5 144.601
R67 plus.n70 plus.t22 144.601
R68 plus.n103 plus.t13 144.601
R69 plus.n97 plus.t18 144.601
R70 plus.n73 plus.t3 144.601
R71 plus.n75 plus.t16 144.601
R72 plus.n77 plus.t20 144.601
R73 plus.n80 plus.t17 144.601
R74 plus.n62 plus.n61 80.6037
R75 plus.n125 plus.n124 80.6037
R76 plus.n56 plus.n55 56.5617
R77 plus.n42 plus.n40 56.5617
R78 plus.n32 plus.n31 56.5617
R79 plus.n18 plus.n17 56.5617
R80 plus.n119 plus.n118 56.5617
R81 plus.n105 plus.n104 56.5617
R82 plus.n96 plus.n95 56.5617
R83 plus.n82 plus.n81 56.5617
R84 plus.n47 plus.n46 56.0773
R85 plus.n27 plus.n26 56.0773
R86 plus.n110 plus.n109 56.0773
R87 plus.n91 plus.n90 56.0773
R88 plus.n61 plus.n60 46.0096
R89 plus.n124 plus.n123 46.0096
R90 plus.n49 plus.n3 41.5458
R91 plus.n23 plus.n22 41.5458
R92 plus.n112 plus.n66 41.5458
R93 plus.n87 plus.n86 41.5458
R94 plus.n38 plus.n7 40.577
R95 plus.n34 plus.n7 40.577
R96 plus.n102 plus.n71 40.577
R97 plus.n98 plus.n71 40.577
R98 plus.n53 plus.n3 39.6083
R99 plus.n22 plus.n21 39.6083
R100 plus.n116 plus.n66 39.6083
R101 plus.n86 plus.n85 39.6083
R102 plus plus.n125 36.8517
R103 plus.n16 plus.n15 33.0515
R104 plus.n80 plus.n79 33.0515
R105 plus.n15 plus.n14 28.5514
R106 plus.n79 plus.n78 28.5514
R107 plus.n60 plus.n59 26.0455
R108 plus.n123 plus.n122 26.0455
R109 plus.n46 plus.n5 25.0767
R110 plus.n28 plus.n27 25.0767
R111 plus.n109 plus.n68 25.0767
R112 plus.n92 plus.n91 25.0767
R113 plus.n42 plus.n41 24.3464
R114 plus.n31 plus.n9 24.3464
R115 plus.n105 plus.n70 24.3464
R116 plus.n95 plus.n73 24.3464
R117 plus.n56 plus.n1 23.8546
R118 plus.n17 plus.n16 23.8546
R119 plus.n119 plus.n64 23.8546
R120 plus.n81 plus.n80 23.8546
R121 plus.n55 plus.n54 16.9689
R122 plus.n18 plus.n13 16.9689
R123 plus.n118 plus.n117 16.9689
R124 plus.n82 plus.n77 16.9689
R125 plus.n40 plus.n39 16.477
R126 plus.n33 plus.n32 16.477
R127 plus.n104 plus.n103 16.477
R128 plus.n97 plus.n96 16.477
R129 plus.n48 plus.n47 15.9852
R130 plus.n26 plus.n11 15.9852
R131 plus.n111 plus.n110 15.9852
R132 plus.n90 plus.n75 15.9852
R133 plus plus.n62 10.1828
R134 plus.n49 plus.n48 8.60764
R135 plus.n23 plus.n11 8.60764
R136 plus.n112 plus.n111 8.60764
R137 plus.n87 plus.n75 8.60764
R138 plus.n39 plus.n38 8.11581
R139 plus.n34 plus.n33 8.11581
R140 plus.n103 plus.n102 8.11581
R141 plus.n98 plus.n97 8.11581
R142 plus.n54 plus.n53 7.62397
R143 plus.n21 plus.n13 7.62397
R144 plus.n117 plus.n116 7.62397
R145 plus.n85 plus.n77 7.62397
R146 plus.n59 plus.n1 0.738255
R147 plus.n122 plus.n64 0.738255
R148 plus.n62 plus.n0 0.285035
R149 plus.n125 plus.n63 0.285035
R150 plus.n41 plus.n5 0.246418
R151 plus.n28 plus.n9 0.246418
R152 plus.n70 plus.n68 0.246418
R153 plus.n92 plus.n73 0.246418
R154 plus.n19 plus.n14 0.189894
R155 plus.n20 plus.n19 0.189894
R156 plus.n20 plus.n12 0.189894
R157 plus.n24 plus.n12 0.189894
R158 plus.n25 plus.n24 0.189894
R159 plus.n25 plus.n10 0.189894
R160 plus.n29 plus.n10 0.189894
R161 plus.n30 plus.n29 0.189894
R162 plus.n30 plus.n8 0.189894
R163 plus.n35 plus.n8 0.189894
R164 plus.n36 plus.n35 0.189894
R165 plus.n37 plus.n36 0.189894
R166 plus.n37 plus.n6 0.189894
R167 plus.n43 plus.n6 0.189894
R168 plus.n44 plus.n43 0.189894
R169 plus.n45 plus.n44 0.189894
R170 plus.n45 plus.n4 0.189894
R171 plus.n50 plus.n4 0.189894
R172 plus.n51 plus.n50 0.189894
R173 plus.n52 plus.n51 0.189894
R174 plus.n52 plus.n2 0.189894
R175 plus.n57 plus.n2 0.189894
R176 plus.n58 plus.n57 0.189894
R177 plus.n58 plus.n0 0.189894
R178 plus.n121 plus.n63 0.189894
R179 plus.n121 plus.n120 0.189894
R180 plus.n120 plus.n65 0.189894
R181 plus.n115 plus.n65 0.189894
R182 plus.n115 plus.n114 0.189894
R183 plus.n114 plus.n113 0.189894
R184 plus.n113 plus.n67 0.189894
R185 plus.n108 plus.n67 0.189894
R186 plus.n108 plus.n107 0.189894
R187 plus.n107 plus.n106 0.189894
R188 plus.n106 plus.n69 0.189894
R189 plus.n101 plus.n69 0.189894
R190 plus.n101 plus.n100 0.189894
R191 plus.n100 plus.n99 0.189894
R192 plus.n99 plus.n72 0.189894
R193 plus.n94 plus.n72 0.189894
R194 plus.n94 plus.n93 0.189894
R195 plus.n93 plus.n74 0.189894
R196 plus.n89 plus.n74 0.189894
R197 plus.n89 plus.n88 0.189894
R198 plus.n88 plus.n76 0.189894
R199 plus.n84 plus.n76 0.189894
R200 plus.n84 plus.n83 0.189894
R201 plus.n83 plus.n78 0.189894
R202 drain_left.n13 drain_left.n11 68.3374
R203 drain_left.n7 drain_left.n5 68.3372
R204 drain_left.n2 drain_left.n0 68.3372
R205 drain_left.n19 drain_left.n18 67.1908
R206 drain_left.n17 drain_left.n16 67.1908
R207 drain_left.n15 drain_left.n14 67.1908
R208 drain_left.n13 drain_left.n12 67.1908
R209 drain_left.n21 drain_left.n20 67.1907
R210 drain_left.n7 drain_left.n6 67.1907
R211 drain_left.n9 drain_left.n8 67.1907
R212 drain_left.n4 drain_left.n3 67.1907
R213 drain_left.n2 drain_left.n1 67.1907
R214 drain_left drain_left.n10 33.7139
R215 drain_left drain_left.n21 6.79977
R216 drain_left.n5 drain_left.t20 3.3005
R217 drain_left.n5 drain_left.t17 3.3005
R218 drain_left.n6 drain_left.t22 3.3005
R219 drain_left.n6 drain_left.t7 3.3005
R220 drain_left.n8 drain_left.t16 3.3005
R221 drain_left.n8 drain_left.t13 3.3005
R222 drain_left.n3 drain_left.t0 3.3005
R223 drain_left.n3 drain_left.t4 3.3005
R224 drain_left.n1 drain_left.t15 3.3005
R225 drain_left.n1 drain_left.t21 3.3005
R226 drain_left.n0 drain_left.t5 3.3005
R227 drain_left.n0 drain_left.t2 3.3005
R228 drain_left.n20 drain_left.t1 3.3005
R229 drain_left.n20 drain_left.t23 3.3005
R230 drain_left.n18 drain_left.t8 3.3005
R231 drain_left.n18 drain_left.t19 3.3005
R232 drain_left.n16 drain_left.t18 3.3005
R233 drain_left.n16 drain_left.t11 3.3005
R234 drain_left.n14 drain_left.t9 3.3005
R235 drain_left.n14 drain_left.t14 3.3005
R236 drain_left.n12 drain_left.t12 3.3005
R237 drain_left.n12 drain_left.t10 3.3005
R238 drain_left.n11 drain_left.t3 3.3005
R239 drain_left.n11 drain_left.t6 3.3005
R240 drain_left.n9 drain_left.n7 1.14705
R241 drain_left.n4 drain_left.n2 1.14705
R242 drain_left.n15 drain_left.n13 1.14705
R243 drain_left.n17 drain_left.n15 1.14705
R244 drain_left.n19 drain_left.n17 1.14705
R245 drain_left.n21 drain_left.n19 1.14705
R246 drain_left.n10 drain_left.n9 0.51843
R247 drain_left.n10 drain_left.n4 0.51843
R248 source.n290 source.n264 289.615
R249 source.n248 source.n222 289.615
R250 source.n216 source.n190 289.615
R251 source.n174 source.n148 289.615
R252 source.n26 source.n0 289.615
R253 source.n68 source.n42 289.615
R254 source.n100 source.n74 289.615
R255 source.n142 source.n116 289.615
R256 source.n275 source.n274 185
R257 source.n272 source.n271 185
R258 source.n281 source.n280 185
R259 source.n283 source.n282 185
R260 source.n268 source.n267 185
R261 source.n289 source.n288 185
R262 source.n291 source.n290 185
R263 source.n233 source.n232 185
R264 source.n230 source.n229 185
R265 source.n239 source.n238 185
R266 source.n241 source.n240 185
R267 source.n226 source.n225 185
R268 source.n247 source.n246 185
R269 source.n249 source.n248 185
R270 source.n201 source.n200 185
R271 source.n198 source.n197 185
R272 source.n207 source.n206 185
R273 source.n209 source.n208 185
R274 source.n194 source.n193 185
R275 source.n215 source.n214 185
R276 source.n217 source.n216 185
R277 source.n159 source.n158 185
R278 source.n156 source.n155 185
R279 source.n165 source.n164 185
R280 source.n167 source.n166 185
R281 source.n152 source.n151 185
R282 source.n173 source.n172 185
R283 source.n175 source.n174 185
R284 source.n27 source.n26 185
R285 source.n25 source.n24 185
R286 source.n4 source.n3 185
R287 source.n19 source.n18 185
R288 source.n17 source.n16 185
R289 source.n8 source.n7 185
R290 source.n11 source.n10 185
R291 source.n69 source.n68 185
R292 source.n67 source.n66 185
R293 source.n46 source.n45 185
R294 source.n61 source.n60 185
R295 source.n59 source.n58 185
R296 source.n50 source.n49 185
R297 source.n53 source.n52 185
R298 source.n101 source.n100 185
R299 source.n99 source.n98 185
R300 source.n78 source.n77 185
R301 source.n93 source.n92 185
R302 source.n91 source.n90 185
R303 source.n82 source.n81 185
R304 source.n85 source.n84 185
R305 source.n143 source.n142 185
R306 source.n141 source.n140 185
R307 source.n120 source.n119 185
R308 source.n135 source.n134 185
R309 source.n133 source.n132 185
R310 source.n124 source.n123 185
R311 source.n127 source.n126 185
R312 source.t8 source.n273 147.661
R313 source.t6 source.n231 147.661
R314 source.t26 source.n199 147.661
R315 source.t39 source.n157 147.661
R316 source.t37 source.n9 147.661
R317 source.t22 source.n51 147.661
R318 source.t46 source.n83 147.661
R319 source.t15 source.n125 147.661
R320 source.n274 source.n271 104.615
R321 source.n281 source.n271 104.615
R322 source.n282 source.n281 104.615
R323 source.n282 source.n267 104.615
R324 source.n289 source.n267 104.615
R325 source.n290 source.n289 104.615
R326 source.n232 source.n229 104.615
R327 source.n239 source.n229 104.615
R328 source.n240 source.n239 104.615
R329 source.n240 source.n225 104.615
R330 source.n247 source.n225 104.615
R331 source.n248 source.n247 104.615
R332 source.n200 source.n197 104.615
R333 source.n207 source.n197 104.615
R334 source.n208 source.n207 104.615
R335 source.n208 source.n193 104.615
R336 source.n215 source.n193 104.615
R337 source.n216 source.n215 104.615
R338 source.n158 source.n155 104.615
R339 source.n165 source.n155 104.615
R340 source.n166 source.n165 104.615
R341 source.n166 source.n151 104.615
R342 source.n173 source.n151 104.615
R343 source.n174 source.n173 104.615
R344 source.n26 source.n25 104.615
R345 source.n25 source.n3 104.615
R346 source.n18 source.n3 104.615
R347 source.n18 source.n17 104.615
R348 source.n17 source.n7 104.615
R349 source.n10 source.n7 104.615
R350 source.n68 source.n67 104.615
R351 source.n67 source.n45 104.615
R352 source.n60 source.n45 104.615
R353 source.n60 source.n59 104.615
R354 source.n59 source.n49 104.615
R355 source.n52 source.n49 104.615
R356 source.n100 source.n99 104.615
R357 source.n99 source.n77 104.615
R358 source.n92 source.n77 104.615
R359 source.n92 source.n91 104.615
R360 source.n91 source.n81 104.615
R361 source.n84 source.n81 104.615
R362 source.n142 source.n141 104.615
R363 source.n141 source.n119 104.615
R364 source.n134 source.n119 104.615
R365 source.n134 source.n133 104.615
R366 source.n133 source.n123 104.615
R367 source.n126 source.n123 104.615
R368 source.n274 source.t8 52.3082
R369 source.n232 source.t6 52.3082
R370 source.n200 source.t26 52.3082
R371 source.n158 source.t39 52.3082
R372 source.n10 source.t37 52.3082
R373 source.n52 source.t22 52.3082
R374 source.n84 source.t46 52.3082
R375 source.n126 source.t15 52.3082
R376 source.n33 source.n32 50.512
R377 source.n35 source.n34 50.512
R378 source.n37 source.n36 50.512
R379 source.n39 source.n38 50.512
R380 source.n41 source.n40 50.512
R381 source.n107 source.n106 50.512
R382 source.n109 source.n108 50.512
R383 source.n111 source.n110 50.512
R384 source.n113 source.n112 50.512
R385 source.n115 source.n114 50.512
R386 source.n263 source.n262 50.5119
R387 source.n261 source.n260 50.5119
R388 source.n259 source.n258 50.5119
R389 source.n257 source.n256 50.5119
R390 source.n255 source.n254 50.5119
R391 source.n189 source.n188 50.5119
R392 source.n187 source.n186 50.5119
R393 source.n185 source.n184 50.5119
R394 source.n183 source.n182 50.5119
R395 source.n181 source.n180 50.5119
R396 source.n295 source.n294 32.1853
R397 source.n253 source.n252 32.1853
R398 source.n221 source.n220 32.1853
R399 source.n179 source.n178 32.1853
R400 source.n31 source.n30 32.1853
R401 source.n73 source.n72 32.1853
R402 source.n105 source.n104 32.1853
R403 source.n147 source.n146 32.1853
R404 source.n179 source.n147 17.8888
R405 source.n275 source.n273 15.6674
R406 source.n233 source.n231 15.6674
R407 source.n201 source.n199 15.6674
R408 source.n159 source.n157 15.6674
R409 source.n11 source.n9 15.6674
R410 source.n53 source.n51 15.6674
R411 source.n85 source.n83 15.6674
R412 source.n127 source.n125 15.6674
R413 source.n276 source.n272 12.8005
R414 source.n234 source.n230 12.8005
R415 source.n202 source.n198 12.8005
R416 source.n160 source.n156 12.8005
R417 source.n12 source.n8 12.8005
R418 source.n54 source.n50 12.8005
R419 source.n86 source.n82 12.8005
R420 source.n128 source.n124 12.8005
R421 source.n296 source.n31 12.0526
R422 source.n280 source.n279 12.0247
R423 source.n238 source.n237 12.0247
R424 source.n206 source.n205 12.0247
R425 source.n164 source.n163 12.0247
R426 source.n16 source.n15 12.0247
R427 source.n58 source.n57 12.0247
R428 source.n90 source.n89 12.0247
R429 source.n132 source.n131 12.0247
R430 source.n283 source.n270 11.249
R431 source.n241 source.n228 11.249
R432 source.n209 source.n196 11.249
R433 source.n167 source.n154 11.249
R434 source.n19 source.n6 11.249
R435 source.n61 source.n48 11.249
R436 source.n93 source.n80 11.249
R437 source.n135 source.n122 11.249
R438 source.n284 source.n268 10.4732
R439 source.n242 source.n226 10.4732
R440 source.n210 source.n194 10.4732
R441 source.n168 source.n152 10.4732
R442 source.n20 source.n4 10.4732
R443 source.n62 source.n46 10.4732
R444 source.n94 source.n78 10.4732
R445 source.n136 source.n120 10.4732
R446 source.n288 source.n287 9.69747
R447 source.n246 source.n245 9.69747
R448 source.n214 source.n213 9.69747
R449 source.n172 source.n171 9.69747
R450 source.n24 source.n23 9.69747
R451 source.n66 source.n65 9.69747
R452 source.n98 source.n97 9.69747
R453 source.n140 source.n139 9.69747
R454 source.n294 source.n293 9.45567
R455 source.n252 source.n251 9.45567
R456 source.n220 source.n219 9.45567
R457 source.n178 source.n177 9.45567
R458 source.n30 source.n29 9.45567
R459 source.n72 source.n71 9.45567
R460 source.n104 source.n103 9.45567
R461 source.n146 source.n145 9.45567
R462 source.n293 source.n292 9.3005
R463 source.n266 source.n265 9.3005
R464 source.n287 source.n286 9.3005
R465 source.n285 source.n284 9.3005
R466 source.n270 source.n269 9.3005
R467 source.n279 source.n278 9.3005
R468 source.n277 source.n276 9.3005
R469 source.n251 source.n250 9.3005
R470 source.n224 source.n223 9.3005
R471 source.n245 source.n244 9.3005
R472 source.n243 source.n242 9.3005
R473 source.n228 source.n227 9.3005
R474 source.n237 source.n236 9.3005
R475 source.n235 source.n234 9.3005
R476 source.n219 source.n218 9.3005
R477 source.n192 source.n191 9.3005
R478 source.n213 source.n212 9.3005
R479 source.n211 source.n210 9.3005
R480 source.n196 source.n195 9.3005
R481 source.n205 source.n204 9.3005
R482 source.n203 source.n202 9.3005
R483 source.n177 source.n176 9.3005
R484 source.n150 source.n149 9.3005
R485 source.n171 source.n170 9.3005
R486 source.n169 source.n168 9.3005
R487 source.n154 source.n153 9.3005
R488 source.n163 source.n162 9.3005
R489 source.n161 source.n160 9.3005
R490 source.n29 source.n28 9.3005
R491 source.n2 source.n1 9.3005
R492 source.n23 source.n22 9.3005
R493 source.n21 source.n20 9.3005
R494 source.n6 source.n5 9.3005
R495 source.n15 source.n14 9.3005
R496 source.n13 source.n12 9.3005
R497 source.n71 source.n70 9.3005
R498 source.n44 source.n43 9.3005
R499 source.n65 source.n64 9.3005
R500 source.n63 source.n62 9.3005
R501 source.n48 source.n47 9.3005
R502 source.n57 source.n56 9.3005
R503 source.n55 source.n54 9.3005
R504 source.n103 source.n102 9.3005
R505 source.n76 source.n75 9.3005
R506 source.n97 source.n96 9.3005
R507 source.n95 source.n94 9.3005
R508 source.n80 source.n79 9.3005
R509 source.n89 source.n88 9.3005
R510 source.n87 source.n86 9.3005
R511 source.n145 source.n144 9.3005
R512 source.n118 source.n117 9.3005
R513 source.n139 source.n138 9.3005
R514 source.n137 source.n136 9.3005
R515 source.n122 source.n121 9.3005
R516 source.n131 source.n130 9.3005
R517 source.n129 source.n128 9.3005
R518 source.n291 source.n266 8.92171
R519 source.n249 source.n224 8.92171
R520 source.n217 source.n192 8.92171
R521 source.n175 source.n150 8.92171
R522 source.n27 source.n2 8.92171
R523 source.n69 source.n44 8.92171
R524 source.n101 source.n76 8.92171
R525 source.n143 source.n118 8.92171
R526 source.n292 source.n264 8.14595
R527 source.n250 source.n222 8.14595
R528 source.n218 source.n190 8.14595
R529 source.n176 source.n148 8.14595
R530 source.n28 source.n0 8.14595
R531 source.n70 source.n42 8.14595
R532 source.n102 source.n74 8.14595
R533 source.n144 source.n116 8.14595
R534 source.n296 source.n295 5.83671
R535 source.n294 source.n264 5.81868
R536 source.n252 source.n222 5.81868
R537 source.n220 source.n190 5.81868
R538 source.n178 source.n148 5.81868
R539 source.n30 source.n0 5.81868
R540 source.n72 source.n42 5.81868
R541 source.n104 source.n74 5.81868
R542 source.n146 source.n116 5.81868
R543 source.n292 source.n291 5.04292
R544 source.n250 source.n249 5.04292
R545 source.n218 source.n217 5.04292
R546 source.n176 source.n175 5.04292
R547 source.n28 source.n27 5.04292
R548 source.n70 source.n69 5.04292
R549 source.n102 source.n101 5.04292
R550 source.n144 source.n143 5.04292
R551 source.n277 source.n273 4.38594
R552 source.n235 source.n231 4.38594
R553 source.n203 source.n199 4.38594
R554 source.n161 source.n157 4.38594
R555 source.n13 source.n9 4.38594
R556 source.n55 source.n51 4.38594
R557 source.n87 source.n83 4.38594
R558 source.n129 source.n125 4.38594
R559 source.n288 source.n266 4.26717
R560 source.n246 source.n224 4.26717
R561 source.n214 source.n192 4.26717
R562 source.n172 source.n150 4.26717
R563 source.n24 source.n2 4.26717
R564 source.n66 source.n44 4.26717
R565 source.n98 source.n76 4.26717
R566 source.n140 source.n118 4.26717
R567 source.n287 source.n268 3.49141
R568 source.n245 source.n226 3.49141
R569 source.n213 source.n194 3.49141
R570 source.n171 source.n152 3.49141
R571 source.n23 source.n4 3.49141
R572 source.n65 source.n46 3.49141
R573 source.n97 source.n78 3.49141
R574 source.n139 source.n120 3.49141
R575 source.n262 source.t21 3.3005
R576 source.n262 source.t1 3.3005
R577 source.n260 source.t19 3.3005
R578 source.n260 source.t13 3.3005
R579 source.n258 source.t5 3.3005
R580 source.n258 source.t47 3.3005
R581 source.n256 source.t3 3.3005
R582 source.n256 source.t0 3.3005
R583 source.n254 source.t17 3.3005
R584 source.n254 source.t2 3.3005
R585 source.n188 source.t25 3.3005
R586 source.n188 source.t28 3.3005
R587 source.n186 source.t42 3.3005
R588 source.n186 source.t29 3.3005
R589 source.n184 source.t32 3.3005
R590 source.n184 source.t27 3.3005
R591 source.n182 source.t40 3.3005
R592 source.n182 source.t23 3.3005
R593 source.n180 source.t24 3.3005
R594 source.n180 source.t44 3.3005
R595 source.n32 source.t31 3.3005
R596 source.n32 source.t35 3.3005
R597 source.n34 source.t34 3.3005
R598 source.n34 source.t36 3.3005
R599 source.n36 source.t38 3.3005
R600 source.n36 source.t30 3.3005
R601 source.n38 source.t41 3.3005
R602 source.n38 source.t33 3.3005
R603 source.n40 source.t43 3.3005
R604 source.n40 source.t45 3.3005
R605 source.n106 source.t4 3.3005
R606 source.n106 source.t11 3.3005
R607 source.n108 source.t20 3.3005
R608 source.n108 source.t9 3.3005
R609 source.n110 source.t14 3.3005
R610 source.n110 source.t7 3.3005
R611 source.n112 source.t18 3.3005
R612 source.n112 source.t16 3.3005
R613 source.n114 source.t10 3.3005
R614 source.n114 source.t12 3.3005
R615 source.n284 source.n283 2.71565
R616 source.n242 source.n241 2.71565
R617 source.n210 source.n209 2.71565
R618 source.n168 source.n167 2.71565
R619 source.n20 source.n19 2.71565
R620 source.n62 source.n61 2.71565
R621 source.n94 source.n93 2.71565
R622 source.n136 source.n135 2.71565
R623 source.n280 source.n270 1.93989
R624 source.n238 source.n228 1.93989
R625 source.n206 source.n196 1.93989
R626 source.n164 source.n154 1.93989
R627 source.n16 source.n6 1.93989
R628 source.n58 source.n48 1.93989
R629 source.n90 source.n80 1.93989
R630 source.n132 source.n122 1.93989
R631 source.n279 source.n272 1.16414
R632 source.n237 source.n230 1.16414
R633 source.n205 source.n198 1.16414
R634 source.n163 source.n156 1.16414
R635 source.n15 source.n8 1.16414
R636 source.n57 source.n50 1.16414
R637 source.n89 source.n82 1.16414
R638 source.n131 source.n124 1.16414
R639 source.n147 source.n115 1.14705
R640 source.n115 source.n113 1.14705
R641 source.n113 source.n111 1.14705
R642 source.n111 source.n109 1.14705
R643 source.n109 source.n107 1.14705
R644 source.n107 source.n105 1.14705
R645 source.n73 source.n41 1.14705
R646 source.n41 source.n39 1.14705
R647 source.n39 source.n37 1.14705
R648 source.n37 source.n35 1.14705
R649 source.n35 source.n33 1.14705
R650 source.n33 source.n31 1.14705
R651 source.n181 source.n179 1.14705
R652 source.n183 source.n181 1.14705
R653 source.n185 source.n183 1.14705
R654 source.n187 source.n185 1.14705
R655 source.n189 source.n187 1.14705
R656 source.n221 source.n189 1.14705
R657 source.n255 source.n253 1.14705
R658 source.n257 source.n255 1.14705
R659 source.n259 source.n257 1.14705
R660 source.n261 source.n259 1.14705
R661 source.n263 source.n261 1.14705
R662 source.n295 source.n263 1.14705
R663 source.n105 source.n73 0.470328
R664 source.n253 source.n221 0.470328
R665 source.n276 source.n275 0.388379
R666 source.n234 source.n233 0.388379
R667 source.n202 source.n201 0.388379
R668 source.n160 source.n159 0.388379
R669 source.n12 source.n11 0.388379
R670 source.n54 source.n53 0.388379
R671 source.n86 source.n85 0.388379
R672 source.n128 source.n127 0.388379
R673 source source.n296 0.188
R674 source.n278 source.n277 0.155672
R675 source.n278 source.n269 0.155672
R676 source.n285 source.n269 0.155672
R677 source.n286 source.n285 0.155672
R678 source.n286 source.n265 0.155672
R679 source.n293 source.n265 0.155672
R680 source.n236 source.n235 0.155672
R681 source.n236 source.n227 0.155672
R682 source.n243 source.n227 0.155672
R683 source.n244 source.n243 0.155672
R684 source.n244 source.n223 0.155672
R685 source.n251 source.n223 0.155672
R686 source.n204 source.n203 0.155672
R687 source.n204 source.n195 0.155672
R688 source.n211 source.n195 0.155672
R689 source.n212 source.n211 0.155672