* NGSPICE file created from opamp556.ext - technology: sky130A

.subckt opamp556 gnd CSoutput output vdd plus minus commonsourceibias outputibias
+ diffpairibias
X0 gnd.t273 commonsourceibias.t48 CSoutput.t119 gnd.t184 sky130_fd_pr__nfet_01v8 ad=1.155 pd=7.33 as=1.155 ps=7.33 w=7 l=1
X1 CSoutput.t36 a_n8964_8799.t40 vdd.t295 vdd.t235 sky130_fd_pr__pfet_01v8 ad=1.32 pd=8.33 as=3.12 ps=16.78 w=8 l=0.5
X2 gnd.t143 gnd.t141 gnd.t142 gnd.t123 sky130_fd_pr__nfet_01v8 ad=2.73 pd=14.78 as=0 ps=0 w=7 l=1
X3 commonsourceibias.t21 commonsourceibias.t20 gnd.t272 gnd.t248 sky130_fd_pr__nfet_01v8 ad=1.155 pd=7.33 as=2.73 ps=14.78 w=7 l=1
X4 a_n2472_13878.t7 a_n2650_13878.t60 vdd.t121 vdd.t120 sky130_fd_pr__pfet_01v8 ad=1.485 pd=9.33 as=1.485 ps=9.33 w=9 l=0.5
X5 a_n2472_13878.t27 a_n2650_13878.t13 a_n2650_13878.t14 vdd.t125 sky130_fd_pr__pfet_01v8 ad=1.485 pd=9.33 as=1.485 ps=9.33 w=9 l=0.5
X6 vdd.t294 a_n8964_8799.t41 CSoutput.t55 vdd.t229 sky130_fd_pr__pfet_01v8 ad=1.32 pd=8.33 as=1.32 ps=8.33 w=8 l=0.5
X7 a_n8964_8799.t2 plus.t5 a_n2903_n3924.t40 gnd.t25 sky130_fd_pr__nfet_01v8 ad=1.155 pd=7.33 as=1.155 ps=7.33 w=7 l=0.9
X8 CSoutput.t146 a_n8964_8799.t42 vdd.t293 vdd.t152 sky130_fd_pr__pfet_01v8 ad=1.32 pd=8.33 as=1.32 ps=8.33 w=8 l=0.5
X9 a_n2903_n3924.t39 plus.t6 a_n8964_8799.t6 gnd.t24 sky130_fd_pr__nfet_01v8 ad=2.73 pd=14.78 as=1.155 ps=7.33 w=7 l=0.9
X10 gnd.t271 commonsourceibias.t49 CSoutput.t118 gnd.t244 sky130_fd_pr__nfet_01v8 ad=1.155 pd=7.33 as=1.155 ps=7.33 w=7 l=1
X11 CSoutput.t153 a_n8964_8799.t43 vdd.t292 vdd.t144 sky130_fd_pr__pfet_01v8 ad=1.32 pd=8.33 as=1.32 ps=8.33 w=8 l=0.5
X12 gnd.t270 commonsourceibias.t18 commonsourceibias.t19 gnd.t199 sky130_fd_pr__nfet_01v8 ad=1.155 pd=7.33 as=1.155 ps=7.33 w=7 l=1
X13 vdd.t291 a_n8964_8799.t44 CSoutput.t66 vdd.t217 sky130_fd_pr__pfet_01v8 ad=1.32 pd=8.33 as=1.32 ps=8.33 w=8 l=0.5
X14 gnd.t269 commonsourceibias.t50 CSoutput.t117 gnd.t199 sky130_fd_pr__nfet_01v8 ad=1.155 pd=7.33 as=1.155 ps=7.33 w=7 l=1
X15 a_n2650_8322.t33 a_n2650_13878.t61 a_n8964_8799.t18 vdd.t122 sky130_fd_pr__pfet_01v8 ad=1.485 pd=9.33 as=1.485 ps=9.33 w=9 l=0.5
X16 CSoutput.t56 a_n8964_8799.t45 vdd.t290 vdd.t178 sky130_fd_pr__pfet_01v8 ad=1.32 pd=8.33 as=1.32 ps=8.33 w=8 l=0.5
X17 vdd.t289 a_n8964_8799.t46 CSoutput.t47 vdd.t275 sky130_fd_pr__pfet_01v8 ad=1.32 pd=8.33 as=1.32 ps=8.33 w=8 l=0.5
X18 CSoutput.t30 a_n8964_8799.t47 vdd.t288 vdd.t187 sky130_fd_pr__pfet_01v8 ad=1.32 pd=8.33 as=1.32 ps=8.33 w=8 l=0.5
X19 vdd.t287 a_n8964_8799.t48 CSoutput.t15 vdd.t275 sky130_fd_pr__pfet_01v8 ad=1.32 pd=8.33 as=1.32 ps=8.33 w=8 l=0.5
X20 vdd.t286 a_n8964_8799.t49 CSoutput.t57 vdd.t222 sky130_fd_pr__pfet_01v8 ad=1.32 pd=8.33 as=1.32 ps=8.33 w=8 l=0.5
X21 vdd.t7 CSoutput.t168 output.t15 gnd.t15 sky130_fd_pr__nfet_01v8 ad=0.825 pd=5.33 as=0.825 ps=5.33 w=5 l=1
X22 a_n2650_13878.t58 minus.t5 a_n2903_n3924.t42 gnd.t177 sky130_fd_pr__nfet_01v8 ad=1.155 pd=7.33 as=1.155 ps=7.33 w=7 l=0.9
X23 gnd.t268 commonsourceibias.t16 commonsourceibias.t17 gnd.t215 sky130_fd_pr__nfet_01v8 ad=1.155 pd=7.33 as=1.155 ps=7.33 w=7 l=1
X24 a_n8964_8799.t9 plus.t7 a_n2903_n3924.t38 gnd.t35 sky130_fd_pr__nfet_01v8 ad=1.155 pd=7.33 as=1.155 ps=7.33 w=7 l=0.9
X25 a_n8964_8799.t19 a_n2650_13878.t62 a_n2650_8322.t32 vdd.t123 sky130_fd_pr__pfet_01v8 ad=1.485 pd=9.33 as=1.485 ps=9.33 w=9 l=0.5
X26 a_n2650_13878.t53 minus.t6 a_n2903_n3924.t16 gnd.t171 sky130_fd_pr__nfet_01v8 ad=1.155 pd=7.33 as=1.155 ps=7.33 w=7 l=0.9
X27 vdd.t285 a_n8964_8799.t50 CSoutput.t79 vdd.t140 sky130_fd_pr__pfet_01v8 ad=1.32 pd=8.33 as=1.32 ps=8.33 w=8 l=0.5
X28 vdd.t284 a_n8964_8799.t51 CSoutput.t154 vdd.t251 sky130_fd_pr__pfet_01v8 ad=1.32 pd=8.33 as=1.32 ps=8.33 w=8 l=0.5
X29 a_n8964_8799.t20 a_n2650_13878.t63 a_n2650_8322.t31 vdd.t106 sky130_fd_pr__pfet_01v8 ad=1.485 pd=9.33 as=3.51 ps=18.78 w=9 l=0.5
X30 output.t14 CSoutput.t169 vdd.t6 gnd.t14 sky130_fd_pr__nfet_01v8 ad=0.825 pd=5.33 as=0.825 ps=5.33 w=5 l=1
X31 output.t19 outputibias.t8 gnd.t173 gnd.t172 sky130_fd_pr__nfet_01v8 ad=2.34 pd=12.78 as=2.34 ps=12.78 w=6 l=2
X32 CSoutput.t116 commonsourceibias.t51 gnd.t267 gnd.t192 sky130_fd_pr__nfet_01v8 ad=1.155 pd=7.33 as=1.155 ps=7.33 w=7 l=1
X33 CSoutput.t170 a_n2650_8322.t5 sky130_fd_pr__cap_mim_m3_1 l=12 w=12
X34 gnd.t266 commonsourceibias.t14 commonsourceibias.t15 gnd.t241 sky130_fd_pr__nfet_01v8 ad=1.155 pd=7.33 as=1.155 ps=7.33 w=7 l=1
X35 CSoutput.t34 a_n8964_8799.t52 vdd.t283 vdd.t235 sky130_fd_pr__pfet_01v8 ad=1.32 pd=8.33 as=3.12 ps=16.78 w=8 l=0.5
X36 a_n2903_n3924.t37 plus.t8 a_n8964_8799.t27 gnd.t19 sky130_fd_pr__nfet_01v8 ad=1.155 pd=7.33 as=1.155 ps=7.33 w=7 l=0.9
X37 output.t17 outputibias.t9 gnd.t29 gnd.t28 sky130_fd_pr__nfet_01v8 ad=2.34 pd=12.78 as=2.34 ps=12.78 w=6 l=2
X38 CSoutput.t115 commonsourceibias.t52 gnd.t265 gnd.t188 sky130_fd_pr__nfet_01v8 ad=1.155 pd=7.33 as=1.155 ps=7.33 w=7 l=1
X39 a_n2903_n3924.t18 diffpairibias.t16 gnd.t175 gnd.t174 sky130_fd_pr__nfet_01v8 ad=2.73 pd=14.78 as=2.73 ps=14.78 w=7 l=1
X40 a_n2903_n3924.t1 minus.t7 a_n2650_13878.t1 gnd.t17 sky130_fd_pr__nfet_01v8 ad=1.155 pd=7.33 as=1.155 ps=7.33 w=7 l=0.9
X41 CSoutput.t35 a_n8964_8799.t53 vdd.t282 vdd.t201 sky130_fd_pr__pfet_01v8 ad=1.32 pd=8.33 as=1.32 ps=8.33 w=8 l=0.5
X42 vdd.t281 a_n8964_8799.t54 CSoutput.t33 vdd.t140 sky130_fd_pr__pfet_01v8 ad=1.32 pd=8.33 as=1.32 ps=8.33 w=8 l=0.5
X43 CSoutput.t126 commonsourceibias.t53 gnd.t264 gnd.t186 sky130_fd_pr__nfet_01v8 ad=1.155 pd=7.33 as=1.155 ps=7.33 w=7 l=1
X44 CSoutput.t50 a_n8964_8799.t55 vdd.t280 vdd.t144 sky130_fd_pr__pfet_01v8 ad=1.32 pd=8.33 as=1.32 ps=8.33 w=8 l=0.5
X45 output.t18 outputibias.t10 gnd.t162 gnd.t161 sky130_fd_pr__nfet_01v8 ad=2.34 pd=12.78 as=2.34 ps=12.78 w=6 l=2
X46 vdd.t279 a_n8964_8799.t56 CSoutput.t61 vdd.t217 sky130_fd_pr__pfet_01v8 ad=1.32 pd=8.33 as=1.32 ps=8.33 w=8 l=0.5
X47 vdd.t97 vdd.t95 vdd.t96 vdd.t31 sky130_fd_pr__pfet_01v8 ad=3.51 pd=18.78 as=0 ps=0 w=9 l=0.5
X48 a_n2472_13878.t26 a_n2650_13878.t43 a_n2650_13878.t44 vdd.t21 sky130_fd_pr__pfet_01v8 ad=1.485 pd=9.33 as=1.485 ps=9.33 w=9 l=0.5
X49 CSoutput.t125 commonsourceibias.t54 gnd.t263 gnd.t248 sky130_fd_pr__nfet_01v8 ad=1.155 pd=7.33 as=2.73 ps=14.78 w=7 l=1
X50 output.t13 CSoutput.t171 vdd.t15 gnd.t13 sky130_fd_pr__nfet_01v8 ad=0.825 pd=5.33 as=0.825 ps=5.33 w=5 l=1
X51 a_n2650_13878.t40 a_n2650_13878.t39 a_n2472_13878.t25 vdd.t117 sky130_fd_pr__pfet_01v8 ad=1.485 pd=9.33 as=1.485 ps=9.33 w=9 l=0.5
X52 vdd.t1 CSoutput.t172 output.t12 gnd.t12 sky130_fd_pr__nfet_01v8 ad=0.825 pd=5.33 as=0.825 ps=5.33 w=5 l=1
X53 CSoutput.t52 a_n8964_8799.t57 vdd.t278 vdd.t187 sky130_fd_pr__pfet_01v8 ad=1.32 pd=8.33 as=1.32 ps=8.33 w=8 l=0.5
X54 vdd.t94 vdd.t92 vdd.t93 vdd.t69 sky130_fd_pr__pfet_01v8 ad=3.51 pd=18.78 as=0 ps=0 w=9 l=0.5
X55 a_n2903_n3924.t36 plus.t9 a_n8964_8799.t13 gnd.t18 sky130_fd_pr__nfet_01v8 ad=1.155 pd=7.33 as=1.155 ps=7.33 w=7 l=0.9
X56 vdd.t277 a_n8964_8799.t58 CSoutput.t12 vdd.t222 sky130_fd_pr__pfet_01v8 ad=1.32 pd=8.33 as=1.32 ps=8.33 w=8 l=0.5
X57 vdd.t276 a_n8964_8799.t59 CSoutput.t152 vdd.t275 sky130_fd_pr__pfet_01v8 ad=1.32 pd=8.33 as=1.32 ps=8.33 w=8 l=0.5
X58 plus.t4 gnd.t138 gnd.t140 gnd.t139 sky130_fd_pr__nfet_01v8 ad=0.165 pd=1.33 as=0.165 ps=1.33 w=1 l=0.5
X59 diffpairibias.t15 diffpairibias.t14 gnd.t147 gnd.t146 sky130_fd_pr__nfet_01v8 ad=2.73 pd=14.78 as=2.73 ps=14.78 w=7 l=1
X60 a_n2903_n3924.t35 plus.t10 a_n8964_8799.t35 gnd.t20 sky130_fd_pr__nfet_01v8 ad=1.155 pd=7.33 as=1.155 ps=7.33 w=7 l=0.9
X61 gnd.t137 gnd.t135 gnd.t136 gnd.t81 sky130_fd_pr__nfet_01v8 ad=2.73 pd=14.78 as=0 ps=0 w=7 l=0.9
X62 gnd.t134 gnd.t132 gnd.t133 gnd.t123 sky130_fd_pr__nfet_01v8 ad=2.73 pd=14.78 as=0 ps=0 w=7 l=1
X63 a_n2650_13878.t10 a_n2650_13878.t9 a_n2472_13878.t24 vdd.t112 sky130_fd_pr__pfet_01v8 ad=1.485 pd=9.33 as=1.485 ps=9.33 w=9 l=0.5
X64 CSoutput.t150 a_n8964_8799.t60 vdd.t274 vdd.t248 sky130_fd_pr__pfet_01v8 ad=1.32 pd=8.33 as=1.32 ps=8.33 w=8 l=0.5
X65 vdd.t273 a_n8964_8799.t61 CSoutput.t59 vdd.t184 sky130_fd_pr__pfet_01v8 ad=1.32 pd=8.33 as=1.32 ps=8.33 w=8 l=0.5
X66 a_n8964_8799.t24 a_n2650_13878.t64 a_n2650_8322.t30 vdd.t113 sky130_fd_pr__pfet_01v8 ad=1.485 pd=9.33 as=1.485 ps=9.33 w=9 l=0.5
X67 CSoutput.t16 a_n8964_8799.t62 vdd.t272 vdd.t233 sky130_fd_pr__pfet_01v8 ad=1.32 pd=8.33 as=1.32 ps=8.33 w=8 l=0.5
X68 a_n2650_13878.t12 a_n2650_13878.t11 a_n2472_13878.t23 vdd.t101 sky130_fd_pr__pfet_01v8 ad=3.51 pd=18.78 as=1.485 ps=9.33 w=9 l=0.5
X69 vdd.t271 a_n8964_8799.t63 CSoutput.t151 vdd.t156 sky130_fd_pr__pfet_01v8 ad=1.32 pd=8.33 as=1.32 ps=8.33 w=8 l=0.5
X70 vdd.t270 a_n8964_8799.t64 CSoutput.t92 vdd.t251 sky130_fd_pr__pfet_01v8 ad=1.32 pd=8.33 as=1.32 ps=8.33 w=8 l=0.5
X71 a_n8964_8799.t25 a_n2650_13878.t65 a_n2650_8322.t29 vdd.t118 sky130_fd_pr__pfet_01v8 ad=1.485 pd=9.33 as=3.51 ps=18.78 w=9 l=0.5
X72 gnd.t262 commonsourceibias.t55 CSoutput.t124 gnd.t244 sky130_fd_pr__nfet_01v8 ad=1.155 pd=7.33 as=1.155 ps=7.33 w=7 l=1
X73 diffpairibias.t13 diffpairibias.t12 gnd.t275 gnd.t274 sky130_fd_pr__nfet_01v8 ad=2.73 pd=14.78 as=2.73 ps=14.78 w=7 l=1
X74 gnd.t261 commonsourceibias.t56 CSoutput.t123 gnd.t178 sky130_fd_pr__nfet_01v8 ad=1.155 pd=7.33 as=1.155 ps=7.33 w=7 l=1
X75 CSoutput.t37 a_n8964_8799.t65 vdd.t269 vdd.t163 sky130_fd_pr__pfet_01v8 ad=1.32 pd=8.33 as=1.32 ps=8.33 w=8 l=0.5
X76 commonsourceibias.t31 commonsourceibias.t30 gnd.t260 gnd.t192 sky130_fd_pr__nfet_01v8 ad=1.155 pd=7.33 as=1.155 ps=7.33 w=7 l=1
X77 gnd.t256 commonsourceibias.t57 CSoutput.t121 gnd.t241 sky130_fd_pr__nfet_01v8 ad=1.155 pd=7.33 as=1.155 ps=7.33 w=7 l=1
X78 a_n2650_8322.t28 a_n2650_13878.t66 a_n8964_8799.t32 vdd.t101 sky130_fd_pr__pfet_01v8 ad=3.51 pd=18.78 as=1.485 ps=9.33 w=9 l=0.5
X79 CSoutput.t163 a_n8964_8799.t66 vdd.t268 vdd.t205 sky130_fd_pr__pfet_01v8 ad=1.32 pd=8.33 as=1.32 ps=8.33 w=8 l=0.5
X80 a_n2903_n3924.t11 minus.t8 a_n2650_13878.t51 gnd.t151 sky130_fd_pr__nfet_01v8 ad=1.155 pd=7.33 as=1.155 ps=7.33 w=7 l=0.9
X81 a_n2903_n3924.t34 plus.t11 a_n8964_8799.t14 gnd.t34 sky130_fd_pr__nfet_01v8 ad=2.73 pd=14.78 as=1.155 ps=7.33 w=7 l=0.9
X82 commonsourceibias.t29 commonsourceibias.t28 gnd.t259 gnd.t208 sky130_fd_pr__nfet_01v8 ad=1.155 pd=7.33 as=1.155 ps=7.33 w=7 l=1
X83 gnd.t131 gnd.t129 gnd.t130 gnd.t45 sky130_fd_pr__nfet_01v8 ad=2.73 pd=14.78 as=0 ps=0 w=7 l=0.9
X84 a_n8964_8799.t21 plus.t12 a_n2903_n3924.t33 gnd.t158 sky130_fd_pr__nfet_01v8 ad=1.155 pd=7.33 as=1.155 ps=7.33 w=7 l=0.9
X85 gnd.t258 commonsourceibias.t58 CSoutput.t122 gnd.t238 sky130_fd_pr__nfet_01v8 ad=1.155 pd=7.33 as=1.155 ps=7.33 w=7 l=1
X86 gnd.t128 gnd.t126 minus.t4 gnd.t127 sky130_fd_pr__nfet_01v8 ad=0.165 pd=1.33 as=0.39 ps=2.78 w=1 l=0.5
X87 vdd.t91 vdd.t89 vdd.t90 vdd.t65 sky130_fd_pr__pfet_01v8 ad=3.12 pd=16.78 as=0 ps=0 w=8 l=0.5
X88 output.t11 CSoutput.t173 vdd.t2 gnd.t11 sky130_fd_pr__nfet_01v8 ad=0.825 pd=5.33 as=0.825 ps=5.33 w=5 l=1
X89 gnd.t257 commonsourceibias.t26 commonsourceibias.t27 gnd.t238 sky130_fd_pr__nfet_01v8 ad=1.155 pd=7.33 as=1.155 ps=7.33 w=7 l=1
X90 a_n2903_n3924.t15 diffpairibias.t17 gnd.t168 gnd.t167 sky130_fd_pr__nfet_01v8 ad=2.73 pd=14.78 as=2.73 ps=14.78 w=7 l=1
X91 vdd.t267 a_n8964_8799.t67 CSoutput.t93 vdd.t220 sky130_fd_pr__pfet_01v8 ad=1.32 pd=8.33 as=1.32 ps=8.33 w=8 l=0.5
X92 a_n2650_13878.t18 a_n2650_13878.t17 a_n2472_13878.t22 vdd.t122 sky130_fd_pr__pfet_01v8 ad=1.485 pd=9.33 as=1.485 ps=9.33 w=9 l=0.5
X93 vdd.t266 a_n8964_8799.t68 CSoutput.t73 vdd.t195 sky130_fd_pr__pfet_01v8 ad=3.12 pd=16.78 as=1.32 ps=8.33 w=8 l=0.5
X94 vdd.t265 a_n8964_8799.t69 CSoutput.t31 vdd.t255 sky130_fd_pr__pfet_01v8 ad=1.32 pd=8.33 as=1.32 ps=8.33 w=8 l=0.5
X95 a_n2903_n3924.t32 plus.t13 a_n8964_8799.t3 gnd.t16 sky130_fd_pr__nfet_01v8 ad=1.155 pd=7.33 as=1.155 ps=7.33 w=7 l=0.9
X96 vdd.t264 a_n8964_8799.t70 CSoutput.t158 vdd.t227 sky130_fd_pr__pfet_01v8 ad=1.32 pd=8.33 as=1.32 ps=8.33 w=8 l=0.5
X97 a_n8964_8799.t33 a_n2650_13878.t67 a_n2650_8322.t27 vdd.t119 sky130_fd_pr__pfet_01v8 ad=1.485 pd=9.33 as=1.485 ps=9.33 w=9 l=0.5
X98 a_n2650_13878.t16 a_n2650_13878.t15 a_n2472_13878.t21 vdd.t16 sky130_fd_pr__pfet_01v8 ad=3.51 pd=18.78 as=1.485 ps=9.33 w=9 l=0.5
X99 gnd.t255 commonsourceibias.t24 commonsourceibias.t25 gnd.t232 sky130_fd_pr__nfet_01v8 ad=2.73 pd=14.78 as=1.155 ps=7.33 w=7 l=1
X100 commonsourceibias.t23 commonsourceibias.t22 gnd.t254 gnd.t186 sky130_fd_pr__nfet_01v8 ad=1.155 pd=7.33 as=1.155 ps=7.33 w=7 l=1
X101 CSoutput.t174 a_n2650_8322.t4 sky130_fd_pr__cap_mim_m3_1 l=12 w=12
X102 CSoutput.t120 commonsourceibias.t59 gnd.t253 gnd.t188 sky130_fd_pr__nfet_01v8 ad=1.155 pd=7.33 as=1.155 ps=7.33 w=7 l=1
X103 vdd.t263 a_n8964_8799.t71 CSoutput.t67 vdd.t161 sky130_fd_pr__pfet_01v8 ad=1.32 pd=8.33 as=1.32 ps=8.33 w=8 l=0.5
X104 CSoutput.t88 a_n8964_8799.t72 vdd.t262 vdd.t248 sky130_fd_pr__pfet_01v8 ad=1.32 pd=8.33 as=1.32 ps=8.33 w=8 l=0.5
X105 CSoutput.t76 a_n8964_8799.t73 vdd.t261 vdd.t199 sky130_fd_pr__pfet_01v8 ad=1.32 pd=8.33 as=1.32 ps=8.33 w=8 l=0.5
X106 vdd.t88 vdd.t86 vdd.t87 vdd.t73 sky130_fd_pr__pfet_01v8 ad=3.51 pd=18.78 as=0 ps=0 w=9 l=0.5
X107 CSoutput.t100 commonsourceibias.t60 gnd.t252 gnd.t234 sky130_fd_pr__nfet_01v8 ad=1.155 pd=7.33 as=1.155 ps=7.33 w=7 l=1
X108 CSoutput.t94 a_n8964_8799.t74 vdd.t260 vdd.t163 sky130_fd_pr__pfet_01v8 ad=1.32 pd=8.33 as=1.32 ps=8.33 w=8 l=0.5
X109 vdd.t85 vdd.t82 vdd.t84 vdd.t83 sky130_fd_pr__pfet_01v8 ad=3.51 pd=18.78 as=0 ps=0 w=9 l=0.5
X110 gnd.t251 commonsourceibias.t61 CSoutput.t99 gnd.t232 sky130_fd_pr__nfet_01v8 ad=2.73 pd=14.78 as=1.155 ps=7.33 w=7 l=1
X111 commonsourceibias.t5 commonsourceibias.t4 gnd.t250 gnd.t206 sky130_fd_pr__nfet_01v8 ad=1.155 pd=7.33 as=1.155 ps=7.33 w=7 l=1
X112 gnd.t125 gnd.t122 gnd.t124 gnd.t123 sky130_fd_pr__nfet_01v8 ad=2.73 pd=14.78 as=0 ps=0 w=7 l=1
X113 CSoutput.t98 commonsourceibias.t62 gnd.t249 gnd.t248 sky130_fd_pr__nfet_01v8 ad=1.155 pd=7.33 as=2.73 ps=14.78 w=7 l=1
X114 CSoutput.t75 a_n8964_8799.t75 vdd.t259 vdd.t136 sky130_fd_pr__pfet_01v8 ad=1.32 pd=8.33 as=1.32 ps=8.33 w=8 l=0.5
X115 vdd.t258 a_n8964_8799.t76 CSoutput.t62 vdd.t255 sky130_fd_pr__pfet_01v8 ad=1.32 pd=8.33 as=1.32 ps=8.33 w=8 l=0.5
X116 vdd.t18 a_n2650_13878.t68 a_n2650_8322.t13 vdd.t17 sky130_fd_pr__pfet_01v8 ad=1.485 pd=9.33 as=1.485 ps=9.33 w=9 l=0.5
X117 a_n2650_13878.t34 a_n2650_13878.t33 a_n2472_13878.t20 vdd.t111 sky130_fd_pr__pfet_01v8 ad=1.485 pd=9.33 as=1.485 ps=9.33 w=9 l=0.5
X118 vdd.t81 vdd.t79 vdd.t80 vdd.t49 sky130_fd_pr__pfet_01v8 ad=3.12 pd=16.78 as=0 ps=0 w=8 l=0.5
X119 a_n2650_8322.t12 a_n2650_13878.t69 vdd.t20 vdd.t19 sky130_fd_pr__pfet_01v8 ad=1.485 pd=9.33 as=1.485 ps=9.33 w=9 l=0.5
X120 a_n2903_n3924.t47 diffpairibias.t18 gnd.t285 gnd.t284 sky130_fd_pr__nfet_01v8 ad=2.73 pd=14.78 as=2.73 ps=14.78 w=7 l=1
X121 CSoutput.t68 a_n8964_8799.t77 vdd.t257 vdd.t205 sky130_fd_pr__pfet_01v8 ad=1.32 pd=8.33 as=1.32 ps=8.33 w=8 l=0.5
X122 commonsourceibias.t3 commonsourceibias.t2 gnd.t247 gnd.t234 sky130_fd_pr__nfet_01v8 ad=1.155 pd=7.33 as=1.155 ps=7.33 w=7 l=1
X123 gnd.t118 gnd.t115 gnd.t117 gnd.t116 sky130_fd_pr__nfet_01v8 ad=1.95 pd=10.78 as=0 ps=0 w=5 l=1
X124 vdd.t133 a_n2650_13878.t70 a_n2472_13878.t6 vdd.t132 sky130_fd_pr__pfet_01v8 ad=1.485 pd=9.33 as=1.485 ps=9.33 w=9 l=0.5
X125 vdd.t78 vdd.t76 vdd.t77 vdd.t65 sky130_fd_pr__pfet_01v8 ad=3.12 pd=16.78 as=0 ps=0 w=8 l=0.5
X126 vdd.t75 vdd.t72 vdd.t74 vdd.t73 sky130_fd_pr__pfet_01v8 ad=3.51 pd=18.78 as=0 ps=0 w=9 l=0.5
X127 vdd.t256 a_n8964_8799.t78 CSoutput.t91 vdd.t255 sky130_fd_pr__pfet_01v8 ad=1.32 pd=8.33 as=1.32 ps=8.33 w=8 l=0.5
X128 plus.t3 gnd.t119 gnd.t121 gnd.t120 sky130_fd_pr__nfet_01v8 ad=0.165 pd=1.33 as=0.165 ps=1.33 w=1 l=0.5
X129 vdd.t254 a_n8964_8799.t79 CSoutput.t89 vdd.t227 sky130_fd_pr__pfet_01v8 ad=1.32 pd=8.33 as=1.32 ps=8.33 w=8 l=0.5
X130 gnd.t246 commonsourceibias.t63 CSoutput.t97 gnd.t178 sky130_fd_pr__nfet_01v8 ad=1.155 pd=7.33 as=1.155 ps=7.33 w=7 l=1
X131 gnd.t245 commonsourceibias.t0 commonsourceibias.t1 gnd.t244 sky130_fd_pr__nfet_01v8 ad=1.155 pd=7.33 as=1.155 ps=7.33 w=7 l=1
X132 gnd.t114 gnd.t112 minus.t3 gnd.t113 sky130_fd_pr__nfet_01v8 ad=0.165 pd=1.33 as=0.165 ps=1.33 w=1 l=0.5
X133 a_n8964_8799.t4 plus.t14 a_n2903_n3924.t31 gnd.t30 sky130_fd_pr__nfet_01v8 ad=1.155 pd=7.33 as=2.73 ps=14.78 w=7 l=0.9
X134 a_n2650_13878.t55 minus.t9 a_n2903_n3924.t19 gnd.t145 sky130_fd_pr__nfet_01v8 ad=1.155 pd=7.33 as=2.73 ps=14.78 w=7 l=0.9
X135 vdd.t71 vdd.t68 vdd.t70 vdd.t69 sky130_fd_pr__pfet_01v8 ad=3.51 pd=18.78 as=0 ps=0 w=9 l=0.5
X136 a_n2650_8322.t11 a_n2650_13878.t71 vdd.t135 vdd.t134 sky130_fd_pr__pfet_01v8 ad=3.51 pd=18.78 as=1.485 ps=9.33 w=9 l=0.5
X137 gnd.t243 commonsourceibias.t64 CSoutput.t96 gnd.t212 sky130_fd_pr__nfet_01v8 ad=2.73 pd=14.78 as=1.155 ps=7.33 w=7 l=1
X138 gnd.t242 commonsourceibias.t65 CSoutput.t95 gnd.t241 sky130_fd_pr__nfet_01v8 ad=1.155 pd=7.33 as=1.155 ps=7.33 w=7 l=1
X139 a_n8964_8799.t38 a_n2650_13878.t72 a_n2650_8322.t26 vdd.t100 sky130_fd_pr__pfet_01v8 ad=1.485 pd=9.33 as=1.485 ps=9.33 w=9 l=0.5
X140 a_n8964_8799.t5 plus.t15 a_n2903_n3924.t30 gnd.t31 sky130_fd_pr__nfet_01v8 ad=1.155 pd=7.33 as=1.155 ps=7.33 w=7 l=0.9
X141 CSoutput.t3 a_n8964_8799.t80 vdd.t253 vdd.t171 sky130_fd_pr__pfet_01v8 ad=1.32 pd=8.33 as=1.32 ps=8.33 w=8 l=0.5
X142 diffpairibias.t11 diffpairibias.t10 gnd.t155 gnd.t154 sky130_fd_pr__nfet_01v8 ad=2.73 pd=14.78 as=2.73 ps=14.78 w=7 l=1
X143 vdd.t252 a_n8964_8799.t81 CSoutput.t90 vdd.t251 sky130_fd_pr__pfet_01v8 ad=1.32 pd=8.33 as=1.32 ps=8.33 w=8 l=0.5
X144 a_n2650_13878.t26 a_n2650_13878.t25 a_n2472_13878.t19 vdd.t107 sky130_fd_pr__pfet_01v8 ad=1.485 pd=9.33 as=1.485 ps=9.33 w=9 l=0.5
X145 vdd.t250 a_n8964_8799.t82 CSoutput.t65 vdd.t161 sky130_fd_pr__pfet_01v8 ad=1.32 pd=8.33 as=1.32 ps=8.33 w=8 l=0.5
X146 a_n8964_8799.t39 a_n2650_13878.t73 a_n2650_8322.t25 vdd.t125 sky130_fd_pr__pfet_01v8 ad=1.485 pd=9.33 as=1.485 ps=9.33 w=9 l=0.5
X147 CSoutput.t6 a_n8964_8799.t83 vdd.t249 vdd.t248 sky130_fd_pr__pfet_01v8 ad=1.32 pd=8.33 as=1.32 ps=8.33 w=8 l=0.5
X148 CSoutput.t72 a_n8964_8799.t84 vdd.t247 vdd.t199 sky130_fd_pr__pfet_01v8 ad=1.32 pd=8.33 as=1.32 ps=8.33 w=8 l=0.5
X149 CSoutput.t64 a_n8964_8799.t85 vdd.t246 vdd.t215 sky130_fd_pr__pfet_01v8 ad=1.32 pd=8.33 as=1.32 ps=8.33 w=8 l=0.5
X150 gnd.t240 commonsourceibias.t66 CSoutput.t141 gnd.t224 sky130_fd_pr__nfet_01v8 ad=1.155 pd=7.33 as=1.155 ps=7.33 w=7 l=1
X151 a_n2472_13878.t18 a_n2650_13878.t23 a_n2650_13878.t24 vdd.t119 sky130_fd_pr__pfet_01v8 ad=1.485 pd=9.33 as=1.485 ps=9.33 w=9 l=0.5
X152 gnd.t111 gnd.t108 gnd.t110 gnd.t109 sky130_fd_pr__nfet_01v8 ad=2.34 pd=12.78 as=0 ps=0 w=6 l=2
X153 gnd.t239 commonsourceibias.t67 CSoutput.t140 gnd.t238 sky130_fd_pr__nfet_01v8 ad=1.155 pd=7.33 as=1.155 ps=7.33 w=7 l=1
X154 vdd.t67 vdd.t64 vdd.t66 vdd.t65 sky130_fd_pr__pfet_01v8 ad=3.12 pd=16.78 as=0 ps=0 w=8 l=0.5
X155 vdd.t63 vdd.t61 vdd.t62 vdd.t35 sky130_fd_pr__pfet_01v8 ad=3.12 pd=16.78 as=0 ps=0 w=8 l=0.5
X156 gnd.t107 gnd.t104 gnd.t106 gnd.t105 sky130_fd_pr__nfet_01v8 ad=2.34 pd=12.78 as=0 ps=0 w=6 l=2
X157 gnd.t103 gnd.t101 minus.t2 gnd.t102 sky130_fd_pr__nfet_01v8 ad=0.39 pd=2.78 as=0.165 ps=1.33 w=1 l=0.5
X158 CSoutput.t74 a_n8964_8799.t86 vdd.t245 vdd.t233 sky130_fd_pr__pfet_01v8 ad=1.32 pd=8.33 as=1.32 ps=8.33 w=8 l=0.5
X159 vdd.t297 a_n2650_13878.t74 a_n2650_8322.t10 vdd.t296 sky130_fd_pr__pfet_01v8 ad=1.485 pd=9.33 as=3.51 ps=18.78 w=9 l=0.5
X160 CSoutput.t139 commonsourceibias.t68 gnd.t237 gnd.t196 sky130_fd_pr__nfet_01v8 ad=1.155 pd=7.33 as=1.155 ps=7.33 w=7 l=1
X161 a_n2472_13878.t17 a_n2650_13878.t21 a_n2650_13878.t22 vdd.t123 sky130_fd_pr__pfet_01v8 ad=1.485 pd=9.33 as=1.485 ps=9.33 w=9 l=0.5
X162 vdd.t244 a_n8964_8799.t87 CSoutput.t60 vdd.t231 sky130_fd_pr__pfet_01v8 ad=3.12 pd=16.78 as=1.32 ps=8.33 w=8 l=0.5
X163 vdd.t243 a_n8964_8799.t88 CSoutput.t69 vdd.t229 sky130_fd_pr__pfet_01v8 ad=1.32 pd=8.33 as=1.32 ps=8.33 w=8 l=0.5
X164 a_n2650_13878.t52 minus.t10 a_n2903_n3924.t14 gnd.t25 sky130_fd_pr__nfet_01v8 ad=1.155 pd=7.33 as=1.155 ps=7.33 w=7 l=0.9
X165 a_n2903_n3924.t29 plus.t16 a_n8964_8799.t7 gnd.t144 sky130_fd_pr__nfet_01v8 ad=1.155 pd=7.33 as=1.155 ps=7.33 w=7 l=0.9
X166 vdd.t60 vdd.t58 vdd.t59 vdd.t49 sky130_fd_pr__pfet_01v8 ad=3.12 pd=16.78 as=0 ps=0 w=8 l=0.5
X167 output.t10 CSoutput.t175 vdd.t8 gnd.t10 sky130_fd_pr__nfet_01v8 ad=0.825 pd=5.33 as=0.825 ps=5.33 w=5 l=1
X168 a_n2650_13878.t30 a_n2650_13878.t29 a_n2472_13878.t16 vdd.t108 sky130_fd_pr__pfet_01v8 ad=1.485 pd=9.33 as=1.485 ps=9.33 w=9 l=0.5
X169 CSoutput.t176 a_n2650_8322.t3 sky130_fd_pr__cap_mim_m3_1 l=12 w=12
X170 output.t16 outputibias.t11 gnd.t23 gnd.t22 sky130_fd_pr__nfet_01v8 ad=2.34 pd=12.78 as=2.34 ps=12.78 w=6 l=2
X171 vdd.t242 a_n8964_8799.t89 CSoutput.t8 vdd.t173 sky130_fd_pr__pfet_01v8 ad=1.32 pd=8.33 as=1.32 ps=8.33 w=8 l=0.5
X172 a_n2903_n3924.t44 diffpairibias.t19 gnd.t277 gnd.t276 sky130_fd_pr__nfet_01v8 ad=2.73 pd=14.78 as=2.73 ps=14.78 w=7 l=1
X173 gnd.t100 gnd.t97 gnd.t99 gnd.t98 sky130_fd_pr__nfet_01v8 ad=2.73 pd=14.78 as=0 ps=0 w=7 l=1
X174 a_n2903_n3924.t45 diffpairibias.t20 gnd.t279 gnd.t278 sky130_fd_pr__nfet_01v8 ad=2.73 pd=14.78 as=2.73 ps=14.78 w=7 l=1
X175 a_n8964_8799.t28 plus.t17 a_n2903_n3924.t28 gnd.t148 sky130_fd_pr__nfet_01v8 ad=1.155 pd=7.33 as=1.155 ps=7.33 w=7 l=0.9
X176 vdd.t241 a_n8964_8799.t90 CSoutput.t44 vdd.t231 sky130_fd_pr__pfet_01v8 ad=3.12 pd=16.78 as=1.32 ps=8.33 w=8 l=0.5
X177 CSoutput.t138 commonsourceibias.t69 gnd.t236 gnd.t182 sky130_fd_pr__nfet_01v8 ad=1.155 pd=7.33 as=1.155 ps=7.33 w=7 l=1
X178 CSoutput.t137 commonsourceibias.t70 gnd.t235 gnd.t234 sky130_fd_pr__nfet_01v8 ad=1.155 pd=7.33 as=1.155 ps=7.33 w=7 l=1
X179 CSoutput.t45 a_n8964_8799.t91 vdd.t240 vdd.t154 sky130_fd_pr__pfet_01v8 ad=1.32 pd=8.33 as=3.12 ps=16.78 w=8 l=0.5
X180 vdd.t239 a_n8964_8799.t92 CSoutput.t157 vdd.t220 sky130_fd_pr__pfet_01v8 ad=1.32 pd=8.33 as=1.32 ps=8.33 w=8 l=0.5
X181 gnd.t233 commonsourceibias.t71 CSoutput.t136 gnd.t232 sky130_fd_pr__nfet_01v8 ad=2.73 pd=14.78 as=1.155 ps=7.33 w=7 l=1
X182 outputibias.t7 outputibias.t6 gnd.t150 gnd.t149 sky130_fd_pr__nfet_01v8 ad=2.34 pd=12.78 as=2.34 ps=12.78 w=6 l=2
X183 CSoutput.t135 commonsourceibias.t72 gnd.t231 gnd.t204 sky130_fd_pr__nfet_01v8 ad=1.155 pd=7.33 as=1.155 ps=7.33 w=7 l=1
X184 a_n8964_8799.t37 plus.t18 a_n2903_n3924.t27 gnd.t171 sky130_fd_pr__nfet_01v8 ad=1.155 pd=7.33 as=1.155 ps=7.33 w=7 l=0.9
X185 a_n2472_13878.t15 a_n2650_13878.t37 a_n2650_13878.t38 vdd.t116 sky130_fd_pr__pfet_01v8 ad=1.485 pd=9.33 as=1.485 ps=9.33 w=9 l=0.5
X186 a_n2650_8322.t24 a_n2650_13878.t75 a_n8964_8799.t31 vdd.t112 sky130_fd_pr__pfet_01v8 ad=1.485 pd=9.33 as=1.485 ps=9.33 w=9 l=0.5
X187 CSoutput.t28 a_n8964_8799.t93 vdd.t238 vdd.t215 sky130_fd_pr__pfet_01v8 ad=1.32 pd=8.33 as=1.32 ps=8.33 w=8 l=0.5
X188 vdd.t57 vdd.t55 vdd.t56 vdd.t27 sky130_fd_pr__pfet_01v8 ad=3.51 pd=18.78 as=0 ps=0 w=9 l=0.5
X189 CSoutput.t82 a_n8964_8799.t94 vdd.t237 vdd.t138 sky130_fd_pr__pfet_01v8 ad=1.32 pd=8.33 as=1.32 ps=8.33 w=8 l=0.5
X190 outputibias.t5 outputibias.t4 gnd.t164 gnd.t163 sky130_fd_pr__nfet_01v8 ad=2.34 pd=12.78 as=2.34 ps=12.78 w=6 l=2
X191 CSoutput.t54 a_n8964_8799.t95 vdd.t236 vdd.t235 sky130_fd_pr__pfet_01v8 ad=1.32 pd=8.33 as=3.12 ps=16.78 w=8 l=0.5
X192 gnd.t96 gnd.t93 gnd.t95 gnd.t94 sky130_fd_pr__nfet_01v8 ad=1.95 pd=10.78 as=0 ps=0 w=5 l=1
X193 gnd.t92 gnd.t90 gnd.t91 gnd.t58 sky130_fd_pr__nfet_01v8 ad=2.73 pd=14.78 as=0 ps=0 w=7 l=1
X194 vdd.t12 CSoutput.t177 output.t9 gnd.t9 sky130_fd_pr__nfet_01v8 ad=0.825 pd=5.33 as=0.825 ps=5.33 w=5 l=1
X195 diffpairibias.t9 diffpairibias.t8 gnd.t281 gnd.t280 sky130_fd_pr__nfet_01v8 ad=2.73 pd=14.78 as=2.73 ps=14.78 w=7 l=1
X196 a_n2472_13878.t5 a_n2650_13878.t76 vdd.t299 vdd.t298 sky130_fd_pr__pfet_01v8 ad=1.485 pd=9.33 as=1.485 ps=9.33 w=9 l=0.5
X197 a_n2650_13878.t5 minus.t11 a_n2903_n3924.t5 gnd.t21 sky130_fd_pr__nfet_01v8 ad=1.155 pd=7.33 as=1.155 ps=7.33 w=7 l=0.9
X198 vdd.t301 a_n2650_13878.t77 a_n2472_13878.t4 vdd.t300 sky130_fd_pr__pfet_01v8 ad=1.485 pd=9.33 as=1.485 ps=9.33 w=9 l=0.5
X199 CSoutput.t63 a_n8964_8799.t96 vdd.t234 vdd.t233 sky130_fd_pr__pfet_01v8 ad=1.32 pd=8.33 as=1.32 ps=8.33 w=8 l=0.5
X200 a_n2903_n3924.t26 plus.t19 a_n8964_8799.t23 gnd.t17 sky130_fd_pr__nfet_01v8 ad=1.155 pd=7.33 as=1.155 ps=7.33 w=7 l=0.9
X201 vdd.t232 a_n8964_8799.t97 CSoutput.t0 vdd.t231 sky130_fd_pr__pfet_01v8 ad=3.12 pd=16.78 as=1.32 ps=8.33 w=8 l=0.5
X202 vdd.t230 a_n8964_8799.t98 CSoutput.t147 vdd.t229 sky130_fd_pr__pfet_01v8 ad=1.32 pd=8.33 as=1.32 ps=8.33 w=8 l=0.5
X203 vdd.t228 a_n8964_8799.t99 CSoutput.t7 vdd.t227 sky130_fd_pr__pfet_01v8 ad=1.32 pd=8.33 as=1.32 ps=8.33 w=8 l=0.5
X204 gnd.t230 commonsourceibias.t73 CSoutput.t134 gnd.t215 sky130_fd_pr__nfet_01v8 ad=1.155 pd=7.33 as=1.155 ps=7.33 w=7 l=1
X205 CSoutput.t108 commonsourceibias.t74 gnd.t226 gnd.t180 sky130_fd_pr__nfet_01v8 ad=1.155 pd=7.33 as=2.73 ps=14.78 w=7 l=1
X206 CSoutput.t144 a_n8964_8799.t100 vdd.t226 vdd.t193 sky130_fd_pr__pfet_01v8 ad=1.32 pd=8.33 as=1.32 ps=8.33 w=8 l=0.5
X207 a_n2472_13878.t14 a_n2650_13878.t7 a_n2650_13878.t8 vdd.t113 sky130_fd_pr__pfet_01v8 ad=1.485 pd=9.33 as=1.485 ps=9.33 w=9 l=0.5
X208 gnd.t229 commonsourceibias.t36 commonsourceibias.t37 gnd.t194 sky130_fd_pr__nfet_01v8 ad=1.155 pd=7.33 as=1.155 ps=7.33 w=7 l=1
X209 gnd.t228 commonsourceibias.t75 CSoutput.t133 gnd.t212 sky130_fd_pr__nfet_01v8 ad=2.73 pd=14.78 as=1.155 ps=7.33 w=7 l=1
X210 vdd.t225 a_n8964_8799.t101 CSoutput.t13 vdd.t173 sky130_fd_pr__pfet_01v8 ad=1.32 pd=8.33 as=1.32 ps=8.33 w=8 l=0.5
X211 a_n2903_n3924.t20 minus.t12 a_n2650_13878.t56 gnd.t176 sky130_fd_pr__nfet_01v8 ad=1.155 pd=7.33 as=1.155 ps=7.33 w=7 l=0.9
X212 gnd.t227 commonsourceibias.t76 CSoutput.t109 gnd.t224 sky130_fd_pr__nfet_01v8 ad=1.155 pd=7.33 as=1.155 ps=7.33 w=7 l=1
X213 a_n2650_8322.t23 a_n2650_13878.t78 a_n8964_8799.t36 vdd.t124 sky130_fd_pr__pfet_01v8 ad=1.485 pd=9.33 as=1.485 ps=9.33 w=9 l=0.5
X214 CSoutput.t86 a_n8964_8799.t102 vdd.t224 vdd.t176 sky130_fd_pr__pfet_01v8 ad=1.32 pd=8.33 as=1.32 ps=8.33 w=8 l=0.5
X215 diffpairibias.t7 diffpairibias.t6 gnd.t33 gnd.t32 sky130_fd_pr__nfet_01v8 ad=2.73 pd=14.78 as=2.73 ps=14.78 w=7 l=1
X216 vdd.t223 a_n8964_8799.t103 CSoutput.t145 vdd.t222 sky130_fd_pr__pfet_01v8 ad=1.32 pd=8.33 as=1.32 ps=8.33 w=8 l=0.5
X217 a_n2472_13878.t13 a_n2650_13878.t35 a_n2650_13878.t36 vdd.t118 sky130_fd_pr__pfet_01v8 ad=1.485 pd=9.33 as=3.51 ps=18.78 w=9 l=0.5
X218 CSoutput.t178 a_n2650_8322.t2 sky130_fd_pr__cap_mim_m3_1 l=12 w=12
X219 vdd.t303 a_n2650_13878.t79 a_n2650_8322.t9 vdd.t302 sky130_fd_pr__pfet_01v8 ad=1.485 pd=9.33 as=3.51 ps=18.78 w=9 l=0.5
X220 gnd.t225 commonsourceibias.t8 commonsourceibias.t9 gnd.t224 sky130_fd_pr__nfet_01v8 ad=1.155 pd=7.33 as=1.155 ps=7.33 w=7 l=1
X221 vdd.t221 a_n8964_8799.t104 CSoutput.t148 vdd.t220 sky130_fd_pr__pfet_01v8 ad=1.32 pd=8.33 as=1.32 ps=8.33 w=8 l=0.5
X222 gnd.t89 gnd.t87 gnd.t88 gnd.t37 sky130_fd_pr__nfet_01v8 ad=2.73 pd=14.78 as=0 ps=0 w=7 l=1
X223 gnd.t86 gnd.t84 gnd.t85 gnd.t58 sky130_fd_pr__nfet_01v8 ad=2.73 pd=14.78 as=0 ps=0 w=7 l=1
X224 a_n2903_n3924.t4 minus.t13 a_n2650_13878.t4 gnd.t20 sky130_fd_pr__nfet_01v8 ad=1.155 pd=7.33 as=1.155 ps=7.33 w=7 l=0.9
X225 gnd.t83 gnd.t80 gnd.t82 gnd.t81 sky130_fd_pr__nfet_01v8 ad=2.73 pd=14.78 as=0 ps=0 w=7 l=0.9
X226 CSoutput.t107 commonsourceibias.t77 gnd.t223 gnd.t208 sky130_fd_pr__nfet_01v8 ad=1.155 pd=7.33 as=1.155 ps=7.33 w=7 l=1
X227 gnd.t79 gnd.t77 plus.t2 gnd.t78 sky130_fd_pr__nfet_01v8 ad=0.165 pd=1.33 as=0.165 ps=1.33 w=1 l=0.5
X228 a_n2903_n3924.t6 minus.t14 a_n2650_13878.t6 gnd.t24 sky130_fd_pr__nfet_01v8 ad=2.73 pd=14.78 as=1.155 ps=7.33 w=7 l=0.9
X229 CSoutput.t106 commonsourceibias.t78 gnd.t222 gnd.t196 sky130_fd_pr__nfet_01v8 ad=1.155 pd=7.33 as=1.155 ps=7.33 w=7 l=1
X230 minus.t1 gnd.t74 gnd.t76 gnd.t75 sky130_fd_pr__nfet_01v8 ad=0.165 pd=1.33 as=0.165 ps=1.33 w=1 l=0.5
X231 CSoutput.t46 a_n8964_8799.t105 vdd.t219 vdd.t201 sky130_fd_pr__pfet_01v8 ad=1.32 pd=8.33 as=1.32 ps=8.33 w=8 l=0.5
X232 a_n2472_13878.t3 a_n2650_13878.t80 vdd.t129 vdd.t128 sky130_fd_pr__pfet_01v8 ad=3.51 pd=18.78 as=1.485 ps=9.33 w=9 l=0.5
X233 vdd.t54 vdd.t52 vdd.t53 vdd.t35 sky130_fd_pr__pfet_01v8 ad=3.12 pd=16.78 as=0 ps=0 w=8 l=0.5
X234 CSoutput.t179 a_n2650_8322.t1 sky130_fd_pr__cap_mim_m3_1 l=12 w=12
X235 vdd.t218 a_n8964_8799.t106 CSoutput.t149 vdd.t217 sky130_fd_pr__pfet_01v8 ad=1.32 pd=8.33 as=1.32 ps=8.33 w=8 l=0.5
X236 CSoutput.t166 a_n8964_8799.t107 vdd.t216 vdd.t215 sky130_fd_pr__pfet_01v8 ad=1.32 pd=8.33 as=1.32 ps=8.33 w=8 l=0.5
X237 vdd.t214 a_n8964_8799.t108 CSoutput.t23 vdd.t195 sky130_fd_pr__pfet_01v8 ad=3.12 pd=16.78 as=1.32 ps=8.33 w=8 l=0.5
X238 CSoutput.t81 a_n8964_8799.t109 vdd.t213 vdd.t193 sky130_fd_pr__pfet_01v8 ad=1.32 pd=8.33 as=1.32 ps=8.33 w=8 l=0.5
X239 gnd.t221 commonsourceibias.t6 commonsourceibias.t7 gnd.t201 sky130_fd_pr__nfet_01v8 ad=1.155 pd=7.33 as=1.155 ps=7.33 w=7 l=1
X240 gnd.t73 gnd.t70 gnd.t72 gnd.t71 sky130_fd_pr__nfet_01v8 ad=2.73 pd=14.78 as=0 ps=0 w=7 l=1
X241 vdd.t212 a_n8964_8799.t110 CSoutput.t9 vdd.t189 sky130_fd_pr__pfet_01v8 ad=1.32 pd=8.33 as=1.32 ps=8.33 w=8 l=0.5
X242 a_n2903_n3924.t46 diffpairibias.t21 gnd.t283 gnd.t282 sky130_fd_pr__nfet_01v8 ad=2.73 pd=14.78 as=2.73 ps=14.78 w=7 l=1
X243 CSoutput.t105 commonsourceibias.t79 gnd.t220 gnd.t206 sky130_fd_pr__nfet_01v8 ad=1.155 pd=7.33 as=1.155 ps=7.33 w=7 l=1
X244 vdd.t131 a_n2650_13878.t81 a_n2650_8322.t8 vdd.t130 sky130_fd_pr__pfet_01v8 ad=1.485 pd=9.33 as=1.485 ps=9.33 w=9 l=0.5
X245 a_n2650_8322.t22 a_n2650_13878.t82 a_n8964_8799.t16 vdd.t107 sky130_fd_pr__pfet_01v8 ad=1.485 pd=9.33 as=1.485 ps=9.33 w=9 l=0.5
X246 a_n8964_8799.t30 plus.t20 a_n2903_n3924.t25 gnd.t177 sky130_fd_pr__nfet_01v8 ad=1.155 pd=7.33 as=1.155 ps=7.33 w=7 l=0.9
X247 a_n2650_13878.t48 minus.t15 a_n2903_n3924.t8 gnd.t35 sky130_fd_pr__nfet_01v8 ad=1.155 pd=7.33 as=1.155 ps=7.33 w=7 l=0.9
X248 CSoutput.t104 commonsourceibias.t80 gnd.t219 gnd.t182 sky130_fd_pr__nfet_01v8 ad=1.155 pd=7.33 as=1.155 ps=7.33 w=7 l=1
X249 vdd.t51 vdd.t48 vdd.t50 vdd.t49 sky130_fd_pr__pfet_01v8 ad=3.12 pd=16.78 as=0 ps=0 w=8 l=0.5