* NGSPICE file created from opamp306.ext - technology: sky130A

.subckt opamp306 gnd CSoutput output vdd plus minus commonsourceibias outputibias
+ diffpairibias
X0 a_n2472_13878.t24 a_n2650_13878.t34 a_n2650_13878.t35 vdd.t217 sky130_fd_pr__pfet_01v8 ad=1.485 pd=9.33 as=1.485 ps=9.33 w=9 l=0.5
X1 CSoutput.t125 a_n7636_8799.t40 vdd.t234 vdd.t146 sky130_fd_pr__pfet_01v8 ad=1.32 pd=8.33 as=3.12 ps=16.78 w=8 l=0.5
X2 a_n2472_13878.t4 a_n2650_13878.t60 vdd.t229 vdd.t228 sky130_fd_pr__pfet_01v8 ad=1.485 pd=9.33 as=1.485 ps=9.33 w=9 l=0.5
X3 vdd.t235 a_n7636_8799.t41 CSoutput.t124 vdd.t148 sky130_fd_pr__pfet_01v8 ad=1.32 pd=8.33 as=1.32 ps=8.33 w=8 l=0.5
X4 CSoutput.t43 commonsourceibias.t48 gnd.t274 gnd.t223 sky130_fd_pr__nfet_01v8 ad=1.155 pd=7.33 as=1.155 ps=7.33 w=7 l=1
X5 CSoutput.t21 commonsourceibias.t49 gnd.t273 gnd.t155 sky130_fd_pr__nfet_01v8 ad=1.155 pd=7.33 as=1.155 ps=7.33 w=7 l=1
X6 a_n7636_8799.t8 plus.t5 a_n2903_n3924.t19 gnd.t282 sky130_fd_pr__nfet_01v8 ad=1.155 pd=7.33 as=1.155 ps=7.33 w=7 l=0.9
X7 gnd.t272 commonsourceibias.t50 CSoutput.t32 gnd.t216 sky130_fd_pr__nfet_01v8 ad=1.155 pd=7.33 as=1.155 ps=7.33 w=7 l=1
X8 CSoutput.t29 commonsourceibias.t51 gnd.t271 gnd.t197 sky130_fd_pr__nfet_01v8 ad=1.155 pd=7.33 as=1.155 ps=7.33 w=7 l=1
X9 CSoutput.t123 a_n7636_8799.t42 vdd.t232 vdd.t138 sky130_fd_pr__pfet_01v8 ad=1.32 pd=8.33 as=1.32 ps=8.33 w=8 l=0.5
X10 a_n2903_n3924.t18 plus.t6 a_n7636_8799.t4 gnd.t4 sky130_fd_pr__nfet_01v8 ad=2.73 pd=14.78 as=1.155 ps=7.33 w=7 l=0.9
X11 output.t3 outputibias.t8 gnd.t276 gnd.t275 sky130_fd_pr__nfet_01v8 ad=2.34 pd=12.78 as=2.34 ps=12.78 w=6 l=2
X12 vdd.t126 vdd.t124 vdd.t125 vdd.t82 sky130_fd_pr__pfet_01v8 ad=3.12 pd=16.78 as=0 ps=0 w=8 l=0.5
X13 a_n2650_8322.t33 a_n2650_13878.t61 a_n7636_8799.t29 vdd.t226 sky130_fd_pr__pfet_01v8 ad=1.485 pd=9.33 as=1.485 ps=9.33 w=9 l=0.5
X14 vdd.t150 CSoutput.t144 output.t19 gnd.t140 sky130_fd_pr__nfet_01v8 ad=0.825 pd=5.33 as=0.825 ps=5.33 w=5 l=1
X15 CSoutput.t122 a_n7636_8799.t43 vdd.t233 vdd.t40 sky130_fd_pr__pfet_01v8 ad=1.32 pd=8.33 as=1.32 ps=8.33 w=8 l=0.5
X16 vdd.t131 a_n7636_8799.t44 CSoutput.t121 vdd.t42 sky130_fd_pr__pfet_01v8 ad=1.32 pd=8.33 as=1.32 ps=8.33 w=8 l=0.5
X17 gnd.t270 commonsourceibias.t52 CSoutput.t130 gnd.t179 sky130_fd_pr__nfet_01v8 ad=2.73 pd=14.78 as=1.155 ps=7.33 w=7 l=1
X18 CSoutput.t45 commonsourceibias.t53 gnd.t269 gnd.t214 sky130_fd_pr__nfet_01v8 ad=1.155 pd=7.33 as=1.155 ps=7.33 w=7 l=1
X19 gnd.t268 commonsourceibias.t54 CSoutput.t13 gnd.t166 sky130_fd_pr__nfet_01v8 ad=2.73 pd=14.78 as=1.155 ps=7.33 w=7 l=1
X20 CSoutput.t126 commonsourceibias.t55 gnd.t267 gnd.t214 sky130_fd_pr__nfet_01v8 ad=1.155 pd=7.33 as=1.155 ps=7.33 w=7 l=1
X21 gnd.t124 gnd.t121 gnd.t123 gnd.t122 sky130_fd_pr__nfet_01v8 ad=2.34 pd=12.78 as=0 ps=0 w=6 l=2
X22 CSoutput.t39 commonsourceibias.t56 gnd.t266 gnd.t227 sky130_fd_pr__nfet_01v8 ad=1.155 pd=7.33 as=1.155 ps=7.33 w=7 l=1
X23 a_n7636_8799.t12 a_n2650_13878.t62 a_n2650_8322.t32 vdd.t215 sky130_fd_pr__pfet_01v8 ad=1.485 pd=9.33 as=1.485 ps=9.33 w=9 l=0.5
X24 CSoutput.t8 commonsourceibias.t57 gnd.t265 gnd.t155 sky130_fd_pr__nfet_01v8 ad=1.155 pd=7.33 as=1.155 ps=7.33 w=7 l=1
X25 a_n2650_13878.t1 minus.t5 a_n2903_n3924.t25 gnd.t154 sky130_fd_pr__nfet_01v8 ad=1.155 pd=7.33 as=1.155 ps=7.33 w=7 l=0.9
X26 a_n7636_8799.t39 plus.t7 a_n2903_n3924.t17 gnd.t307 sky130_fd_pr__nfet_01v8 ad=1.155 pd=7.33 as=1.155 ps=7.33 w=7 l=0.9
X27 a_n2650_13878.t2 minus.t6 a_n2903_n3924.t26 gnd.t300 sky130_fd_pr__nfet_01v8 ad=1.155 pd=7.33 as=1.155 ps=7.33 w=7 l=0.9
X28 vdd.t132 a_n7636_8799.t45 CSoutput.t120 vdd.t0 sky130_fd_pr__pfet_01v8 ad=1.32 pd=8.33 as=1.32 ps=8.33 w=8 l=0.5
X29 a_n7636_8799.t26 a_n2650_13878.t63 a_n2650_8322.t31 vdd.t179 sky130_fd_pr__pfet_01v8 ad=1.485 pd=9.33 as=3.51 ps=18.78 w=9 l=0.5
X30 gnd.t264 commonsourceibias.t58 CSoutput.t7 gnd.t207 sky130_fd_pr__nfet_01v8 ad=1.155 pd=7.33 as=1.155 ps=7.33 w=7 l=1
X31 CSoutput.t36 commonsourceibias.t59 gnd.t263 gnd.t186 sky130_fd_pr__nfet_01v8 ad=1.155 pd=7.33 as=1.155 ps=7.33 w=7 l=1
X32 CSoutput.t35 commonsourceibias.t60 gnd.t262 gnd.t223 sky130_fd_pr__nfet_01v8 ad=1.155 pd=7.33 as=1.155 ps=7.33 w=7 l=1
X33 gnd.t120 gnd.t118 gnd.t119 gnd.t41 sky130_fd_pr__nfet_01v8 ad=2.73 pd=14.78 as=0 ps=0 w=7 l=1
X34 CSoutput.t145 a_n2650_8322.t5 sky130_fd_pr__cap_mim_m3_1 l=12 w=12
X35 CSoutput.t119 a_n7636_8799.t46 vdd.t168 vdd.t146 sky130_fd_pr__pfet_01v8 ad=1.32 pd=8.33 as=3.12 ps=16.78 w=8 l=0.5
X36 a_n2903_n3924.t16 plus.t8 a_n7636_8799.t9 gnd.t293 sky130_fd_pr__nfet_01v8 ad=1.155 pd=7.33 as=1.155 ps=7.33 w=7 l=0.9
X37 CSoutput.t142 commonsourceibias.t61 gnd.t261 gnd.t203 sky130_fd_pr__nfet_01v8 ad=1.155 pd=7.33 as=1.155 ps=7.33 w=7 l=1
X38 a_n2903_n3924.t31 minus.t7 a_n2650_13878.t7 gnd.t303 sky130_fd_pr__nfet_01v8 ad=1.155 pd=7.33 as=1.155 ps=7.33 w=7 l=0.9
X39 gnd.t260 commonsourceibias.t62 CSoutput.t40 gnd.t184 sky130_fd_pr__nfet_01v8 ad=1.155 pd=7.33 as=1.155 ps=7.33 w=7 l=1
X40 a_n2903_n3924.t21 diffpairibias.t16 gnd.t151 gnd.t150 sky130_fd_pr__nfet_01v8 ad=2.73 pd=14.78 as=2.73 ps=14.78 w=7 l=1
X41 CSoutput.t37 commonsourceibias.t63 gnd.t259 gnd.t172 sky130_fd_pr__nfet_01v8 ad=1.155 pd=7.33 as=2.73 ps=14.78 w=7 l=1
X42 gnd.t258 commonsourceibias.t0 commonsourceibias.t1 gnd.t170 sky130_fd_pr__nfet_01v8 ad=1.155 pd=7.33 as=1.155 ps=7.33 w=7 l=1
X43 gnd.t117 gnd.t114 gnd.t116 gnd.t115 sky130_fd_pr__nfet_01v8 ad=2.34 pd=12.78 as=0 ps=0 w=6 l=2
X44 CSoutput.t118 a_n7636_8799.t47 vdd.t169 vdd.t138 sky130_fd_pr__pfet_01v8 ad=1.32 pd=8.33 as=1.32 ps=8.33 w=8 l=0.5
X45 CSoutput.t34 commonsourceibias.t64 gnd.t257 gnd.t203 sky130_fd_pr__nfet_01v8 ad=1.155 pd=7.33 as=1.155 ps=7.33 w=7 l=1
X46 vdd.t123 vdd.t121 vdd.t122 vdd.t60 sky130_fd_pr__pfet_01v8 ad=3.51 pd=18.78 as=0 ps=0 w=9 l=0.5
X47 a_n2472_13878.t23 a_n2650_13878.t38 a_n2650_13878.t39 vdd.t187 sky130_fd_pr__pfet_01v8 ad=1.485 pd=9.33 as=1.485 ps=9.33 w=9 l=0.5
X48 a_n2650_13878.t27 a_n2650_13878.t26 a_n2472_13878.t22 vdd.t198 sky130_fd_pr__pfet_01v8 ad=1.485 pd=9.33 as=1.485 ps=9.33 w=9 l=0.5
X49 vdd.t120 vdd.t118 vdd.t119 vdd.t82 sky130_fd_pr__pfet_01v8 ad=3.12 pd=16.78 as=0 ps=0 w=8 l=0.5
X50 CSoutput.t41 commonsourceibias.t65 gnd.t256 gnd.t194 sky130_fd_pr__nfet_01v8 ad=1.155 pd=7.33 as=1.155 ps=7.33 w=7 l=1
X51 CSoutput.t117 a_n7636_8799.t48 vdd.t41 vdd.t40 sky130_fd_pr__pfet_01v8 ad=1.32 pd=8.33 as=1.32 ps=8.33 w=8 l=0.5
X52 outputibias.t7 outputibias.t6 gnd.t145 gnd.t144 sky130_fd_pr__nfet_01v8 ad=2.34 pd=12.78 as=2.34 ps=12.78 w=6 l=2
X53 gnd.t255 commonsourceibias.t66 CSoutput.t133 gnd.t216 sky130_fd_pr__nfet_01v8 ad=1.155 pd=7.33 as=1.155 ps=7.33 w=7 l=1
X54 vdd.t117 vdd.t115 vdd.t116 vdd.t98 sky130_fd_pr__pfet_01v8 ad=3.51 pd=18.78 as=0 ps=0 w=9 l=0.5
X55 vdd.t43 a_n7636_8799.t49 CSoutput.t116 vdd.t42 sky130_fd_pr__pfet_01v8 ad=1.32 pd=8.33 as=1.32 ps=8.33 w=8 l=0.5
X56 plus.t4 gnd.t111 gnd.t113 gnd.t112 sky130_fd_pr__nfet_01v8 ad=0.165 pd=1.33 as=0.165 ps=1.33 w=1 l=0.5
X57 CSoutput.t23 commonsourceibias.t67 gnd.t254 gnd.t194 sky130_fd_pr__nfet_01v8 ad=1.155 pd=7.33 as=1.155 ps=7.33 w=7 l=1
X58 a_n2903_n3924.t15 plus.t9 a_n7636_8799.t34 gnd.t306 sky130_fd_pr__nfet_01v8 ad=1.155 pd=7.33 as=1.155 ps=7.33 w=7 l=0.9
X59 gnd.t110 gnd.t108 gnd.t109 gnd.t41 sky130_fd_pr__nfet_01v8 ad=2.73 pd=14.78 as=0 ps=0 w=7 l=1
X60 CSoutput.t135 commonsourceibias.t68 gnd.t253 gnd.t214 sky130_fd_pr__nfet_01v8 ad=1.155 pd=7.33 as=1.155 ps=7.33 w=7 l=1
X61 gnd.t252 commonsourceibias.t6 commonsourceibias.t7 gnd.t157 sky130_fd_pr__nfet_01v8 ad=1.155 pd=7.33 as=1.155 ps=7.33 w=7 l=1
X62 gnd.t107 gnd.t105 gnd.t106 gnd.t10 sky130_fd_pr__nfet_01v8 ad=2.73 pd=14.78 as=0 ps=0 w=7 l=1
X63 gnd.t104 gnd.t102 gnd.t103 gnd.t55 sky130_fd_pr__nfet_01v8 ad=2.73 pd=14.78 as=0 ps=0 w=7 l=0.9
X64 a_n2903_n3924.t14 plus.t10 a_n7636_8799.t7 gnd.t279 sky130_fd_pr__nfet_01v8 ad=1.155 pd=7.33 as=1.155 ps=7.33 w=7 l=0.9
X65 diffpairibias.t15 diffpairibias.t14 gnd.t311 gnd.t310 sky130_fd_pr__nfet_01v8 ad=2.73 pd=14.78 as=2.73 ps=14.78 w=7 l=1
X66 a_n2650_13878.t41 a_n2650_13878.t40 a_n2472_13878.t21 vdd.t212 sky130_fd_pr__pfet_01v8 ad=1.485 pd=9.33 as=1.485 ps=9.33 w=9 l=0.5
X67 CSoutput.t38 commonsourceibias.t69 gnd.t251 gnd.t201 sky130_fd_pr__nfet_01v8 ad=1.155 pd=7.33 as=2.73 ps=14.78 w=7 l=1
X68 CSoutput.t127 commonsourceibias.t70 gnd.t250 gnd.t172 sky130_fd_pr__nfet_01v8 ad=1.155 pd=7.33 as=2.73 ps=14.78 w=7 l=1
X69 a_n7636_8799.t16 a_n2650_13878.t64 a_n2650_8322.t30 vdd.t207 sky130_fd_pr__pfet_01v8 ad=1.485 pd=9.33 as=1.485 ps=9.33 w=9 l=0.5
X70 vdd.t1 a_n7636_8799.t50 CSoutput.t115 vdd.t0 sky130_fd_pr__pfet_01v8 ad=1.32 pd=8.33 as=1.32 ps=8.33 w=8 l=0.5
X71 vdd.t3 a_n7636_8799.t51 CSoutput.t114 vdd.t2 sky130_fd_pr__pfet_01v8 ad=1.32 pd=8.33 as=1.32 ps=8.33 w=8 l=0.5
X72 a_n2650_13878.t51 a_n2650_13878.t50 a_n2472_13878.t20 vdd.t227 sky130_fd_pr__pfet_01v8 ad=3.51 pd=18.78 as=1.485 ps=9.33 w=9 l=0.5
X73 CSoutput.t113 a_n7636_8799.t52 vdd.t230 vdd.t27 sky130_fd_pr__pfet_01v8 ad=1.32 pd=8.33 as=1.32 ps=8.33 w=8 l=0.5
X74 gnd.t249 commonsourceibias.t71 CSoutput.t14 gnd.t188 sky130_fd_pr__nfet_01v8 ad=1.155 pd=7.33 as=1.155 ps=7.33 w=7 l=1
X75 gnd.t248 commonsourceibias.t72 CSoutput.t11 gnd.t164 sky130_fd_pr__nfet_01v8 ad=1.155 pd=7.33 as=1.155 ps=7.33 w=7 l=1
X76 a_n7636_8799.t27 a_n2650_13878.t65 a_n2650_8322.t29 vdd.t206 sky130_fd_pr__pfet_01v8 ad=1.485 pd=9.33 as=3.51 ps=18.78 w=9 l=0.5
X77 CSoutput.t6 commonsourceibias.t73 gnd.t247 gnd.t201 sky130_fd_pr__nfet_01v8 ad=1.155 pd=7.33 as=2.73 ps=14.78 w=7 l=1
X78 diffpairibias.t13 diffpairibias.t12 gnd.t278 gnd.t277 sky130_fd_pr__nfet_01v8 ad=2.73 pd=14.78 as=2.73 ps=14.78 w=7 l=1
X79 CSoutput.t112 a_n7636_8799.t53 vdd.t231 vdd.t14 sky130_fd_pr__pfet_01v8 ad=1.32 pd=8.33 as=1.32 ps=8.33 w=8 l=0.5
X80 gnd.t246 commonsourceibias.t2 commonsourceibias.t3 gnd.t192 sky130_fd_pr__nfet_01v8 ad=1.155 pd=7.33 as=1.155 ps=7.33 w=7 l=1
X81 CSoutput.t141 commonsourceibias.t74 gnd.t245 gnd.t177 sky130_fd_pr__nfet_01v8 ad=1.155 pd=7.33 as=1.155 ps=7.33 w=7 l=1
X82 output.t18 CSoutput.t146 vdd.t151 gnd.t139 sky130_fd_pr__nfet_01v8 ad=0.825 pd=5.33 as=0.825 ps=5.33 w=5 l=1
X83 gnd.t244 commonsourceibias.t75 CSoutput.t136 gnd.t192 sky130_fd_pr__nfet_01v8 ad=1.155 pd=7.33 as=1.155 ps=7.33 w=7 l=1
X84 CSoutput.t53 commonsourceibias.t76 gnd.t243 gnd.t227 sky130_fd_pr__nfet_01v8 ad=1.155 pd=7.33 as=1.155 ps=7.33 w=7 l=1
X85 a_n2650_8322.t28 a_n2650_13878.t66 a_n7636_8799.t30 vdd.t227 sky130_fd_pr__pfet_01v8 ad=3.51 pd=18.78 as=1.485 ps=9.33 w=9 l=0.5
X86 gnd.t242 commonsourceibias.t77 CSoutput.t20 gnd.t207 sky130_fd_pr__nfet_01v8 ad=1.155 pd=7.33 as=1.155 ps=7.33 w=7 l=1
X87 CSoutput.t111 a_n7636_8799.t54 vdd.t144 vdd.t10 sky130_fd_pr__pfet_01v8 ad=1.32 pd=8.33 as=3.12 ps=16.78 w=8 l=0.5
X88 a_n2903_n3924.t34 minus.t8 a_n2650_13878.t10 gnd.t141 sky130_fd_pr__nfet_01v8 ad=1.155 pd=7.33 as=1.155 ps=7.33 w=7 l=0.9
X89 a_n2903_n3924.t13 plus.t11 a_n7636_8799.t10 gnd.t296 sky130_fd_pr__nfet_01v8 ad=2.73 pd=14.78 as=1.155 ps=7.33 w=7 l=0.9
X90 gnd.t101 gnd.t99 minus.t4 gnd.t100 sky130_fd_pr__nfet_01v8 ad=0.165 pd=1.33 as=0.39 ps=2.78 w=1 l=0.5
X91 a_n7636_8799.t1 plus.t12 a_n2903_n3924.t12 gnd.t1 sky130_fd_pr__nfet_01v8 ad=1.155 pd=7.33 as=1.155 ps=7.33 w=7 l=0.9
X92 gnd.t98 gnd.t96 gnd.t97 gnd.t18 sky130_fd_pr__nfet_01v8 ad=2.73 pd=14.78 as=0 ps=0 w=7 l=0.9
X93 gnd.t241 commonsourceibias.t78 CSoutput.t131 gnd.t192 sky130_fd_pr__nfet_01v8 ad=1.155 pd=7.33 as=1.155 ps=7.33 w=7 l=1
X94 output.t17 CSoutput.t147 vdd.t152 gnd.t138 sky130_fd_pr__nfet_01v8 ad=0.825 pd=5.33 as=0.825 ps=5.33 w=5 l=1
X95 vdd.t145 a_n7636_8799.t55 CSoutput.t110 vdd.t33 sky130_fd_pr__pfet_01v8 ad=1.32 pd=8.33 as=1.32 ps=8.33 w=8 l=0.5
X96 a_n2903_n3924.t20 diffpairibias.t17 gnd.t147 gnd.t146 sky130_fd_pr__nfet_01v8 ad=2.73 pd=14.78 as=2.73 ps=14.78 w=7 l=1
X97 vdd.t17 a_n7636_8799.t56 CSoutput.t109 vdd.t16 sky130_fd_pr__pfet_01v8 ad=3.12 pd=16.78 as=1.32 ps=8.33 w=8 l=0.5
X98 a_n7636_8799.t19 a_n2650_13878.t67 a_n2650_8322.t27 vdd.t216 sky130_fd_pr__pfet_01v8 ad=1.485 pd=9.33 as=1.485 ps=9.33 w=9 l=0.5
X99 a_n2650_13878.t23 a_n2650_13878.t22 a_n2472_13878.t19 vdd.t226 sky130_fd_pr__pfet_01v8 ad=1.485 pd=9.33 as=1.485 ps=9.33 w=9 l=0.5
X100 a_n2903_n3924.t11 plus.t13 a_n7636_8799.t11 gnd.t299 sky130_fd_pr__nfet_01v8 ad=1.155 pd=7.33 as=1.155 ps=7.33 w=7 l=0.9
X101 gnd.t240 commonsourceibias.t79 CSoutput.t12 gnd.t184 sky130_fd_pr__nfet_01v8 ad=1.155 pd=7.33 as=1.155 ps=7.33 w=7 l=1
X102 gnd.t95 gnd.t93 gnd.t94 gnd.t14 sky130_fd_pr__nfet_01v8 ad=2.73 pd=14.78 as=0 ps=0 w=7 l=1
X103 a_n2650_13878.t31 a_n2650_13878.t30 a_n2472_13878.t18 vdd.t182 sky130_fd_pr__pfet_01v8 ad=3.51 pd=18.78 as=1.485 ps=9.33 w=9 l=0.5
X104 gnd.t92 gnd.t90 gnd.t91 gnd.t14 sky130_fd_pr__nfet_01v8 ad=2.73 pd=14.78 as=0 ps=0 w=7 l=1
X105 CSoutput.t108 a_n7636_8799.t57 vdd.t18 vdd.t4 sky130_fd_pr__pfet_01v8 ad=1.32 pd=8.33 as=1.32 ps=8.33 w=8 l=0.5
X106 vdd.t129 a_n7636_8799.t58 CSoutput.t107 vdd.t20 sky130_fd_pr__pfet_01v8 ad=1.32 pd=8.33 as=1.32 ps=8.33 w=8 l=0.5
X107 gnd.t239 commonsourceibias.t80 CSoutput.t140 gnd.t161 sky130_fd_pr__nfet_01v8 ad=1.155 pd=7.33 as=1.155 ps=7.33 w=7 l=1
X108 CSoutput.t106 a_n7636_8799.t59 vdd.t130 vdd.t14 sky130_fd_pr__pfet_01v8 ad=1.32 pd=8.33 as=1.32 ps=8.33 w=8 l=0.5
X109 vdd.t114 vdd.t112 vdd.t113 vdd.t102 sky130_fd_pr__pfet_01v8 ad=3.51 pd=18.78 as=0 ps=0 w=9 l=0.5
X110 gnd.t238 commonsourceibias.t81 CSoutput.t0 gnd.t170 sky130_fd_pr__nfet_01v8 ad=1.155 pd=7.33 as=1.155 ps=7.33 w=7 l=1
X111 output.t16 CSoutput.t148 vdd.t153 gnd.t137 sky130_fd_pr__nfet_01v8 ad=0.825 pd=5.33 as=0.825 ps=5.33 w=5 l=1
X112 gnd.t237 commonsourceibias.t10 commonsourceibias.t11 gnd.t166 sky130_fd_pr__nfet_01v8 ad=2.73 pd=14.78 as=1.155 ps=7.33 w=7 l=1
X113 vdd.t111 vdd.t108 vdd.t110 vdd.t109 sky130_fd_pr__pfet_01v8 ad=3.51 pd=18.78 as=0 ps=0 w=9 l=0.5
X114 gnd.t89 gnd.t86 gnd.t88 gnd.t87 sky130_fd_pr__nfet_01v8 ad=1.95 pd=10.78 as=0 ps=0 w=5 l=1
X115 CSoutput.t149 a_n2650_8322.t4 sky130_fd_pr__cap_mim_m3_1 l=12 w=12
X116 output.t2 outputibias.t9 gnd.t317 gnd.t316 sky130_fd_pr__nfet_01v8 ad=2.34 pd=12.78 as=2.34 ps=12.78 w=6 l=2
X117 vdd.t107 vdd.t105 vdd.t106 vdd.t74 sky130_fd_pr__pfet_01v8 ad=3.12 pd=16.78 as=0 ps=0 w=8 l=0.5
X118 a_n2650_8322.t13 a_n2650_13878.t68 vdd.t225 vdd.t224 sky130_fd_pr__pfet_01v8 ad=1.485 pd=9.33 as=1.485 ps=9.33 w=9 l=0.5
X119 vdd.t223 a_n2650_13878.t69 a_n2650_8322.t12 vdd.t222 sky130_fd_pr__pfet_01v8 ad=1.485 pd=9.33 as=1.485 ps=9.33 w=9 l=0.5
X120 a_n2650_13878.t37 a_n2650_13878.t36 a_n2472_13878.t17 vdd.t190 sky130_fd_pr__pfet_01v8 ad=1.485 pd=9.33 as=1.485 ps=9.33 w=9 l=0.5
X121 CSoutput.t105 a_n7636_8799.t60 vdd.t19 vdd.t10 sky130_fd_pr__pfet_01v8 ad=1.32 pd=8.33 as=3.12 ps=16.78 w=8 l=0.5
X122 CSoutput.t25 commonsourceibias.t82 gnd.t236 gnd.t227 sky130_fd_pr__nfet_01v8 ad=1.155 pd=7.33 as=1.155 ps=7.33 w=7 l=1
X123 vdd.t154 CSoutput.t150 output.t15 gnd.t136 sky130_fd_pr__nfet_01v8 ad=0.825 pd=5.33 as=0.825 ps=5.33 w=5 l=1
X124 a_n2903_n3924.t35 diffpairibias.t18 gnd.t305 gnd.t304 sky130_fd_pr__nfet_01v8 ad=2.73 pd=14.78 as=2.73 ps=14.78 w=7 l=1
X125 outputibias.t5 outputibias.t4 gnd.t149 gnd.t148 sky130_fd_pr__nfet_01v8 ad=2.34 pd=12.78 as=2.34 ps=12.78 w=6 l=2
X126 gnd.t76 gnd.t74 gnd.t75 gnd.t10 sky130_fd_pr__nfet_01v8 ad=2.73 pd=14.78 as=0 ps=0 w=7 l=1
X127 CSoutput.t51 commonsourceibias.t83 gnd.t235 gnd.t223 sky130_fd_pr__nfet_01v8 ad=1.155 pd=7.33 as=1.155 ps=7.33 w=7 l=1
X128 vdd.t221 a_n2650_13878.t70 a_n2472_13878.t27 vdd.t220 sky130_fd_pr__pfet_01v8 ad=1.485 pd=9.33 as=1.485 ps=9.33 w=9 l=0.5
X129 vdd.t104 vdd.t101 vdd.t103 vdd.t102 sky130_fd_pr__pfet_01v8 ad=3.51 pd=18.78 as=0 ps=0 w=9 l=0.5
X130 outputibias.t3 outputibias.t2 gnd.t292 gnd.t291 sky130_fd_pr__nfet_01v8 ad=2.34 pd=12.78 as=2.34 ps=12.78 w=6 l=2
X131 plus.t3 gnd.t83 gnd.t85 gnd.t84 sky130_fd_pr__nfet_01v8 ad=0.165 pd=1.33 as=0.165 ps=1.33 w=1 l=0.5
X132 gnd.t82 gnd.t80 gnd.t81 gnd.t14 sky130_fd_pr__nfet_01v8 ad=2.73 pd=14.78 as=0 ps=0 w=7 l=1
X133 gnd.t79 gnd.t77 minus.t3 gnd.t78 sky130_fd_pr__nfet_01v8 ad=0.165 pd=1.33 as=0.165 ps=1.33 w=1 l=0.5
X134 a_n7636_8799.t22 a_n2650_13878.t71 a_n2650_8322.t26 vdd.t188 sky130_fd_pr__pfet_01v8 ad=1.485 pd=9.33 as=1.485 ps=9.33 w=9 l=0.5
X135 a_n2650_8322.t11 a_n2650_13878.t72 vdd.t219 vdd.t218 sky130_fd_pr__pfet_01v8 ad=3.51 pd=18.78 as=1.485 ps=9.33 w=9 l=0.5
X136 vdd.t100 vdd.t97 vdd.t99 vdd.t98 sky130_fd_pr__pfet_01v8 ad=3.51 pd=18.78 as=0 ps=0 w=9 l=0.5
X137 a_n2650_13878.t6 minus.t9 a_n2903_n3924.t30 gnd.t302 sky130_fd_pr__nfet_01v8 ad=1.155 pd=7.33 as=2.73 ps=14.78 w=7 l=0.9
X138 a_n7636_8799.t0 plus.t14 a_n2903_n3924.t10 gnd.t0 sky130_fd_pr__nfet_01v8 ad=1.155 pd=7.33 as=2.73 ps=14.78 w=7 l=0.9
X139 vdd.t21 a_n7636_8799.t61 CSoutput.t104 vdd.t20 sky130_fd_pr__pfet_01v8 ad=1.32 pd=8.33 as=1.32 ps=8.33 w=8 l=0.5
X140 vdd.t238 a_n7636_8799.t62 CSoutput.t103 vdd.t0 sky130_fd_pr__pfet_01v8 ad=1.32 pd=8.33 as=1.32 ps=8.33 w=8 l=0.5
X141 a_n2650_13878.t59 a_n2650_13878.t58 a_n2472_13878.t16 vdd.t201 sky130_fd_pr__pfet_01v8 ad=1.485 pd=9.33 as=1.485 ps=9.33 w=9 l=0.5
X142 CSoutput.t102 a_n7636_8799.t63 vdd.t239 vdd.t6 sky130_fd_pr__pfet_01v8 ad=1.32 pd=8.33 as=1.32 ps=8.33 w=8 l=0.5
X143 a_n7636_8799.t2 plus.t15 a_n2903_n3924.t9 gnd.t2 sky130_fd_pr__nfet_01v8 ad=1.155 pd=7.33 as=1.155 ps=7.33 w=7 l=0.9
X144 diffpairibias.t11 diffpairibias.t10 gnd.t153 gnd.t152 sky130_fd_pr__nfet_01v8 ad=2.73 pd=14.78 as=2.73 ps=14.78 w=7 l=1
X145 CSoutput.t101 a_n7636_8799.t64 vdd.t26 vdd.t4 sky130_fd_pr__pfet_01v8 ad=1.32 pd=8.33 as=1.32 ps=8.33 w=8 l=0.5
X146 a_n7636_8799.t14 a_n2650_13878.t73 a_n2650_8322.t25 vdd.t217 sky130_fd_pr__pfet_01v8 ad=1.485 pd=9.33 as=1.485 ps=9.33 w=9 l=0.5
X147 vdd.t155 CSoutput.t151 output.t14 gnd.t135 sky130_fd_pr__nfet_01v8 ad=0.825 pd=5.33 as=0.825 ps=5.33 w=5 l=1
X148 CSoutput.t24 commonsourceibias.t84 gnd.t234 gnd.t197 sky130_fd_pr__nfet_01v8 ad=1.155 pd=7.33 as=1.155 ps=7.33 w=7 l=1
X149 a_n2472_13878.t15 a_n2650_13878.t24 a_n2650_13878.t25 vdd.t216 sky130_fd_pr__pfet_01v8 ad=1.485 pd=9.33 as=1.485 ps=9.33 w=9 l=0.5
X150 gnd.t233 commonsourceibias.t85 CSoutput.t46 gnd.t216 sky130_fd_pr__nfet_01v8 ad=1.155 pd=7.33 as=1.155 ps=7.33 w=7 l=1
X151 output.t13 CSoutput.t152 vdd.t156 gnd.t134 sky130_fd_pr__nfet_01v8 ad=0.825 pd=5.33 as=0.825 ps=5.33 w=5 l=1
X152 commonsourceibias.t9 commonsourceibias.t8 gnd.t232 gnd.t155 sky130_fd_pr__nfet_01v8 ad=1.155 pd=7.33 as=1.155 ps=7.33 w=7 l=1
X153 CSoutput.t153 a_n2650_8322.t3 sky130_fd_pr__cap_mim_m3_1 l=12 w=12
X154 a_n2472_13878.t14 a_n2650_13878.t28 a_n2650_13878.t29 vdd.t215 sky130_fd_pr__pfet_01v8 ad=1.485 pd=9.33 as=1.485 ps=9.33 w=9 l=0.5
X155 CSoutput.t100 a_n7636_8799.t65 vdd.t28 vdd.t27 sky130_fd_pr__pfet_01v8 ad=1.32 pd=8.33 as=1.32 ps=8.33 w=8 l=0.5
X156 vdd.t214 a_n2650_13878.t74 a_n2650_8322.t10 vdd.t213 sky130_fd_pr__pfet_01v8 ad=1.485 pd=9.33 as=3.51 ps=18.78 w=9 l=0.5
X157 gnd.t73 gnd.t71 minus.t2 gnd.t72 sky130_fd_pr__nfet_01v8 ad=0.39 pd=2.78 as=0.165 ps=1.33 w=1 l=0.5
X158 CSoutput.t52 commonsourceibias.t86 gnd.t231 gnd.t194 sky130_fd_pr__nfet_01v8 ad=1.155 pd=7.33 as=1.155 ps=7.33 w=7 l=1
X159 output.t12 CSoutput.t154 vdd.t157 gnd.t133 sky130_fd_pr__nfet_01v8 ad=0.825 pd=5.33 as=0.825 ps=5.33 w=5 l=1
X160 CSoutput.t155 a_n2650_8322.t2 sky130_fd_pr__cap_mim_m3_1 l=12 w=12
X161 a_n2650_13878.t53 a_n2650_13878.t52 a_n2472_13878.t13 vdd.t185 sky130_fd_pr__pfet_01v8 ad=1.485 pd=9.33 as=1.485 ps=9.33 w=9 l=0.5
X162 vdd.t236 a_n7636_8799.t66 CSoutput.t99 vdd.t148 sky130_fd_pr__pfet_01v8 ad=1.32 pd=8.33 as=1.32 ps=8.33 w=8 l=0.5
X163 vdd.t96 vdd.t94 vdd.t95 vdd.t74 sky130_fd_pr__pfet_01v8 ad=3.12 pd=16.78 as=0 ps=0 w=8 l=0.5
X164 gnd.t230 commonsourceibias.t87 CSoutput.t22 gnd.t207 sky130_fd_pr__nfet_01v8 ad=1.155 pd=7.33 as=1.155 ps=7.33 w=7 l=1
X165 gnd.t229 commonsourceibias.t88 CSoutput.t26 gnd.t188 sky130_fd_pr__nfet_01v8 ad=1.155 pd=7.33 as=1.155 ps=7.33 w=7 l=1
X166 a_n2903_n3924.t8 plus.t16 a_n7636_8799.t33 gnd.t308 sky130_fd_pr__nfet_01v8 ad=1.155 pd=7.33 as=1.155 ps=7.33 w=7 l=0.9
X167 a_n2650_13878.t9 minus.t10 a_n2903_n3924.t33 gnd.t282 sky130_fd_pr__nfet_01v8 ad=1.155 pd=7.33 as=1.155 ps=7.33 w=7 l=0.9
X168 commonsourceibias.t19 commonsourceibias.t18 gnd.t228 gnd.t227 sky130_fd_pr__nfet_01v8 ad=1.155 pd=7.33 as=1.155 ps=7.33 w=7 l=1
X169 gnd.t226 commonsourceibias.t89 CSoutput.t2 gnd.t179 sky130_fd_pr__nfet_01v8 ad=2.73 pd=14.78 as=1.155 ps=7.33 w=7 l=1
X170 vdd.t237 a_n7636_8799.t67 CSoutput.t98 vdd.t30 sky130_fd_pr__pfet_01v8 ad=1.32 pd=8.33 as=1.32 ps=8.33 w=8 l=0.5
X171 CSoutput.t3 commonsourceibias.t90 gnd.t225 gnd.t186 sky130_fd_pr__nfet_01v8 ad=1.155 pd=7.33 as=1.155 ps=7.33 w=7 l=1
X172 outputibias.t1 outputibias.t0 gnd.t281 gnd.t280 sky130_fd_pr__nfet_01v8 ad=2.34 pd=12.78 as=2.34 ps=12.78 w=6 l=2
X173 gnd.t70 gnd.t67 gnd.t69 gnd.t68 sky130_fd_pr__nfet_01v8 ad=2.73 pd=14.78 as=0 ps=0 w=7 l=1
X174 a_n2903_n3924.t23 diffpairibias.t19 gnd.t290 gnd.t289 sky130_fd_pr__nfet_01v8 ad=2.73 pd=14.78 as=2.73 ps=14.78 w=7 l=1
X175 a_n7636_8799.t38 plus.t17 a_n2903_n3924.t7 gnd.t309 sky130_fd_pr__nfet_01v8 ad=1.155 pd=7.33 as=1.155 ps=7.33 w=7 l=0.9
X176 a_n2903_n3924.t47 diffpairibias.t20 gnd.t323 gnd.t322 sky130_fd_pr__nfet_01v8 ad=2.73 pd=14.78 as=2.73 ps=14.78 w=7 l=1
X177 output.t1 outputibias.t10 gnd.t315 gnd.t314 sky130_fd_pr__nfet_01v8 ad=2.34 pd=12.78 as=2.34 ps=12.78 w=6 l=2
X178 commonsourceibias.t17 commonsourceibias.t16 gnd.t224 gnd.t223 sky130_fd_pr__nfet_01v8 ad=1.155 pd=7.33 as=1.155 ps=7.33 w=7 l=1
X179 vdd.t34 a_n7636_8799.t68 CSoutput.t97 vdd.t33 sky130_fd_pr__pfet_01v8 ad=1.32 pd=8.33 as=1.32 ps=8.33 w=8 l=0.5
X180 gnd.t66 gnd.t64 gnd.t65 gnd.t41 sky130_fd_pr__nfet_01v8 ad=2.73 pd=14.78 as=0 ps=0 w=7 l=1
X181 a_n2472_13878.t12 a_n2650_13878.t48 a_n2650_13878.t49 vdd.t189 sky130_fd_pr__pfet_01v8 ad=1.485 pd=9.33 as=1.485 ps=9.33 w=9 l=0.5
X182 a_n7636_8799.t37 plus.t18 a_n2903_n3924.t6 gnd.t300 sky130_fd_pr__nfet_01v8 ad=1.155 pd=7.33 as=1.155 ps=7.33 w=7 l=0.9
X183 CSoutput.t4 commonsourceibias.t91 gnd.t222 gnd.t197 sky130_fd_pr__nfet_01v8 ad=1.155 pd=7.33 as=1.155 ps=7.33 w=7 l=1
X184 vdd.t174 CSoutput.t156 output.t11 gnd.t132 sky130_fd_pr__nfet_01v8 ad=0.825 pd=5.33 as=0.825 ps=5.33 w=5 l=1
X185 CSoutput.t5 commonsourceibias.t92 gnd.t221 gnd.t177 sky130_fd_pr__nfet_01v8 ad=1.155 pd=7.33 as=1.155 ps=7.33 w=7 l=1
X186 vdd.t93 vdd.t91 vdd.t92 vdd.t56 sky130_fd_pr__pfet_01v8 ad=3.51 pd=18.78 as=0 ps=0 w=9 l=0.5
X187 a_n2650_8322.t24 a_n2650_13878.t75 a_n7636_8799.t24 vdd.t212 sky130_fd_pr__pfet_01v8 ad=1.485 pd=9.33 as=1.485 ps=9.33 w=9 l=0.5
X188 CSoutput.t96 a_n7636_8799.t69 vdd.t35 vdd.t12 sky130_fd_pr__pfet_01v8 ad=1.32 pd=8.33 as=1.32 ps=8.33 w=8 l=0.5
X189 gnd.t63 gnd.t61 gnd.t62 gnd.t6 sky130_fd_pr__nfet_01v8 ad=2.73 pd=14.78 as=0 ps=0 w=7 l=1
X190 CSoutput.t95 a_n7636_8799.t70 vdd.t147 vdd.t146 sky130_fd_pr__pfet_01v8 ad=1.32 pd=8.33 as=3.12 ps=16.78 w=8 l=0.5
X191 commonsourceibias.t25 commonsourceibias.t24 gnd.t220 gnd.t203 sky130_fd_pr__nfet_01v8 ad=1.155 pd=7.33 as=1.155 ps=7.33 w=7 l=1
X192 a_n2472_13878.t1 a_n2650_13878.t76 vdd.t211 vdd.t210 sky130_fd_pr__pfet_01v8 ad=1.485 pd=9.33 as=1.485 ps=9.33 w=9 l=0.5
X193 diffpairibias.t9 diffpairibias.t8 gnd.t286 gnd.t285 sky130_fd_pr__nfet_01v8 ad=2.73 pd=14.78 as=2.73 ps=14.78 w=7 l=1
X194 vdd.t90 vdd.t88 vdd.t89 vdd.t78 sky130_fd_pr__pfet_01v8 ad=3.12 pd=16.78 as=0 ps=0 w=8 l=0.5
X195 vdd.t209 a_n2650_13878.t77 a_n2472_13878.t0 vdd.t208 sky130_fd_pr__pfet_01v8 ad=1.485 pd=9.33 as=1.485 ps=9.33 w=9 l=0.5
X196 CSoutput.t143 commonsourceibias.t93 gnd.t219 gnd.t186 sky130_fd_pr__nfet_01v8 ad=1.155 pd=7.33 as=1.155 ps=7.33 w=7 l=1
X197 CSoutput.t134 commonsourceibias.t94 gnd.t218 gnd.t159 sky130_fd_pr__nfet_01v8 ad=1.155 pd=7.33 as=1.155 ps=7.33 w=7 l=1
X198 a_n2650_13878.t5 minus.t11 a_n2903_n3924.t29 gnd.t3 sky130_fd_pr__nfet_01v8 ad=1.155 pd=7.33 as=1.155 ps=7.33 w=7 l=0.9
X199 vdd.t149 a_n7636_8799.t71 CSoutput.t94 vdd.t148 sky130_fd_pr__pfet_01v8 ad=1.32 pd=8.33 as=1.32 ps=8.33 w=8 l=0.5
X200 CSoutput.t93 a_n7636_8799.t72 vdd.t29 vdd.t27 sky130_fd_pr__pfet_01v8 ad=1.32 pd=8.33 as=1.32 ps=8.33 w=8 l=0.5
X201 a_n2903_n3924.t5 plus.t19 a_n7636_8799.t35 gnd.t303 sky130_fd_pr__nfet_01v8 ad=1.155 pd=7.33 as=1.155 ps=7.33 w=7 l=0.9
X202 gnd.t217 commonsourceibias.t22 commonsourceibias.t23 gnd.t216 sky130_fd_pr__nfet_01v8 ad=1.155 pd=7.33 as=1.155 ps=7.33 w=7 l=1
X203 vdd.t87 vdd.t85 vdd.t86 vdd.t78 sky130_fd_pr__pfet_01v8 ad=3.12 pd=16.78 as=0 ps=0 w=8 l=0.5
X204 commonsourceibias.t21 commonsourceibias.t20 gnd.t215 gnd.t214 sky130_fd_pr__nfet_01v8 ad=1.155 pd=7.33 as=1.155 ps=7.33 w=7 l=1
X205 a_n2472_13878.t11 a_n2650_13878.t56 a_n2650_13878.t57 vdd.t207 sky130_fd_pr__pfet_01v8 ad=1.485 pd=9.33 as=1.485 ps=9.33 w=9 l=0.5
X206 gnd.t213 commonsourceibias.t95 CSoutput.t129 gnd.t168 sky130_fd_pr__nfet_01v8 ad=1.155 pd=7.33 as=1.155 ps=7.33 w=7 l=1
X207 commonsourceibias.t37 commonsourceibias.t36 gnd.t212 gnd.t172 sky130_fd_pr__nfet_01v8 ad=1.155 pd=7.33 as=2.73 ps=14.78 w=7 l=1
X208 vdd.t31 a_n7636_8799.t73 CSoutput.t92 vdd.t30 sky130_fd_pr__pfet_01v8 ad=1.32 pd=8.33 as=1.32 ps=8.33 w=8 l=0.5
X209 a_n2650_8322.t23 a_n2650_13878.t78 a_n7636_8799.t25 vdd.t178 sky130_fd_pr__pfet_01v8 ad=1.485 pd=9.33 as=1.485 ps=9.33 w=9 l=0.5
X210 a_n2903_n3924.t28 minus.t12 a_n2650_13878.t4 gnd.t301 sky130_fd_pr__nfet_01v8 ad=1.155 pd=7.33 as=1.155 ps=7.33 w=7 l=0.9
X211 gnd.t211 commonsourceibias.t34 commonsourceibias.t35 gnd.t164 sky130_fd_pr__nfet_01v8 ad=1.155 pd=7.33 as=1.155 ps=7.33 w=7 l=1
X212 a_n2472_13878.t10 a_n2650_13878.t20 a_n2650_13878.t21 vdd.t206 sky130_fd_pr__pfet_01v8 ad=1.485 pd=9.33 as=3.51 ps=18.78 w=9 l=0.5
X213 vdd.t46 a_n7636_8799.t74 CSoutput.t91 vdd.t42 sky130_fd_pr__pfet_01v8 ad=1.32 pd=8.33 as=1.32 ps=8.33 w=8 l=0.5
X214 CSoutput.t90 a_n7636_8799.t75 vdd.t47 vdd.t8 sky130_fd_pr__pfet_01v8 ad=1.32 pd=8.33 as=1.32 ps=8.33 w=8 l=0.5
X215 gnd.t60 gnd.t58 gnd.t59 gnd.t6 sky130_fd_pr__nfet_01v8 ad=2.73 pd=14.78 as=0 ps=0 w=7 l=1
X216 diffpairibias.t7 diffpairibias.t6 gnd.t143 gnd.t142 sky130_fd_pr__nfet_01v8 ad=2.73 pd=14.78 as=2.73 ps=14.78 w=7 l=1
X217 commonsourceibias.t33 commonsourceibias.t32 gnd.t210 gnd.t201 sky130_fd_pr__nfet_01v8 ad=1.155 pd=7.33 as=2.73 ps=14.78 w=7 l=1
X218 gnd.t39 gnd.t36 gnd.t38 gnd.t37 sky130_fd_pr__nfet_01v8 ad=1.95 pd=10.78 as=0 ps=0 w=5 l=1
X219 vdd.t44 a_n7636_8799.t76 CSoutput.t89 vdd.t33 sky130_fd_pr__pfet_01v8 ad=1.32 pd=8.33 as=1.32 ps=8.33 w=8 l=0.5
X220 vdd.t205 a_n2650_13878.t79 a_n2650_8322.t9 vdd.t204 sky130_fd_pr__pfet_01v8 ad=1.485 pd=9.33 as=3.51 ps=18.78 w=9 l=0.5
X221 output.t10 CSoutput.t157 vdd.t175 gnd.t131 sky130_fd_pr__nfet_01v8 ad=0.825 pd=5.33 as=0.825 ps=5.33 w=5 l=1
X222 gnd.t57 gnd.t54 gnd.t56 gnd.t55 sky130_fd_pr__nfet_01v8 ad=2.73 pd=14.78 as=0 ps=0 w=7 l=0.9
X223 a_n2903_n3924.t27 minus.t13 a_n2650_13878.t3 gnd.t279 sky130_fd_pr__nfet_01v8 ad=1.155 pd=7.33 as=1.155 ps=7.33 w=7 l=0.9
X224 minus.t1 gnd.t51 gnd.t53 gnd.t52 sky130_fd_pr__nfet_01v8 ad=0.165 pd=1.33 as=0.165 ps=1.33 w=1 l=0.5
X225 gnd.t50 gnd.t48 plus.t2 gnd.t49 sky130_fd_pr__nfet_01v8 ad=0.165 pd=1.33 as=0.165 ps=1.33 w=1 l=0.5
X226 gnd.t209 commonsourceibias.t96 CSoutput.t19 gnd.t168 sky130_fd_pr__nfet_01v8 ad=1.155 pd=7.33 as=1.155 ps=7.33 w=7 l=1
X227 a_n2903_n3924.t32 minus.t14 a_n2650_13878.t8 gnd.t4 sky130_fd_pr__nfet_01v8 ad=2.73 pd=14.78 as=1.155 ps=7.33 w=7 l=0.9
X228 output.t0 outputibias.t11 gnd.t313 gnd.t312 sky130_fd_pr__nfet_01v8 ad=2.34 pd=12.78 as=2.34 ps=12.78 w=6 l=2
X229 a_n2472_13878.t25 a_n2650_13878.t80 vdd.t203 vdd.t202 sky130_fd_pr__pfet_01v8 ad=3.51 pd=18.78 as=1.485 ps=9.33 w=9 l=0.5
X230 gnd.t208 commonsourceibias.t30 commonsourceibias.t31 gnd.t207 sky130_fd_pr__nfet_01v8 ad=1.155 pd=7.33 as=1.155 ps=7.33 w=7 l=1
X231 vdd.t45 a_n7636_8799.t77 CSoutput.t88 vdd.t16 sky130_fd_pr__pfet_01v8 ad=3.12 pd=16.78 as=1.32 ps=8.33 w=8 l=0.5
X232 output.t9 CSoutput.t158 vdd.t158 gnd.t130 sky130_fd_pr__nfet_01v8 ad=1.95 pd=10.78 as=0.825 ps=5.33 w=5 l=1
X233 vdd.t84 vdd.t81 vdd.t83 vdd.t82 sky130_fd_pr__pfet_01v8 ad=3.12 pd=16.78 as=0 ps=0 w=8 l=0.5
X234 gnd.t47 gnd.t44 gnd.t46 gnd.t45 sky130_fd_pr__nfet_01v8 ad=2.73 pd=14.78 as=0 ps=0 w=7 l=1
X235 a_n2650_8322.t22 a_n2650_13878.t81 a_n7636_8799.t31 vdd.t201 sky130_fd_pr__pfet_01v8 ad=1.485 pd=9.33 as=1.485 ps=9.33 w=9 l=0.5
X236 vdd.t200 a_n2650_13878.t82 a_n2650_8322.t8 vdd.t199 sky130_fd_pr__pfet_01v8 ad=1.485 pd=9.33 as=1.485 ps=9.33 w=9 l=0.5
X237 vdd.t80 vdd.t77 vdd.t79 vdd.t78 sky130_fd_pr__pfet_01v8 ad=3.12 pd=16.78 as=0 ps=0 w=8 l=0.5
X238 a_n2903_n3924.t22 diffpairibias.t21 gnd.t284 gnd.t283 sky130_fd_pr__nfet_01v8 ad=2.73 pd=14.78 as=2.73 ps=14.78 w=7 l=1
X239 CSoutput.t87 a_n7636_8799.t78 vdd.t170 vdd.t48 sky130_fd_pr__pfet_01v8 ad=1.32 pd=8.33 as=1.32 ps=8.33 w=8 l=0.5
X240 vdd.t76 vdd.t73 vdd.t75 vdd.t74 sky130_fd_pr__pfet_01v8 ad=3.12 pd=16.78 as=0 ps=0 w=8 l=0.5
X241 a_n7636_8799.t6 plus.t20 a_n2903_n3924.t4 gnd.t154 sky130_fd_pr__nfet_01v8 ad=1.155 pd=7.33 as=1.155 ps=7.33 w=7 l=0.9
X242 a_n2650_13878.t15 minus.t15 a_n2903_n3924.t40 gnd.t307 sky130_fd_pr__nfet_01v8 ad=1.155 pd=7.33 as=1.155 ps=7.33 w=7 l=0.9
X243 gnd.t206 commonsourceibias.t28 commonsourceibias.t29 gnd.t184 sky130_fd_pr__nfet_01v8 ad=1.155 pd=7.33 as=1.155 ps=7.33 w=7 l=1
X244 vdd.t171 a_n7636_8799.t79 CSoutput.t86 vdd.t133 sky130_fd_pr__pfet_01v8 ad=1.32 pd=8.33 as=1.32 ps=8.33 w=8 l=0.5
X245 vdd.t140 a_n7636_8799.t80 CSoutput.t85 vdd.t135 sky130_fd_pr__pfet_01v8 ad=1.32 pd=8.33 as=1.32 ps=8.33 w=8 l=0.5
X246 vdd.t72 vdd.t70 vdd.t71 vdd.t52 sky130_fd_pr__pfet_01v8 ad=3.12 pd=16.78 as=0 ps=0 w=8 l=0.5
X247 a_n2903_n3924.t39 minus.t16 a_n2650_13878.t14 gnd.t296 sky130_fd_pr__nfet_01v8 ad=2.73 pd=14.78 as=1.155 ps=7.33 w=7 l=0.9
X248 CSoutput.t159 a_n2650_8322.t1 sky130_fd_pr__cap_mim_m3_1 l=12 w=12
X249 vdd.t69 vdd.t66 vdd.t68 vdd.t67 sky130_fd_pr__pfet_01v8 ad=3.51 pd=18.78 as=0 ps=0 w=9 l=0.5
X250 vdd.t141 a_n7636_8799.t81 CSoutput.t84 vdd.t24 sky130_fd_pr__pfet_01v8 ad=3.12 pd=16.78 as=1.32 ps=8.33 w=8 l=0.5