* NGSPICE file created from opamp.ext - technology: sky130A

.subckt opamp output vdd plus minus commonsourceibias outputibias diffpairibias gnd CSoutput
Cload output gnd 0.0p
X0 CSoutput.t136 a_n1986_8322.t9 sky130_fd_pr__cap_mim_m3_1 l=12 w=12
X1 commonsourceibias.t47 commonsourceibias.t46 gnd.t135 gnd.t105 sky130_fd_pr__nfet_01v8 ad=1.155 pd=7.33 as=1.155 ps=7.33 w=7 l=1
X2 gnd.t134 commonsourceibias.t64 CSoutput.t70 gnd.t14 sky130_fd_pr__nfet_01v8 ad=1.155 pd=7.33 as=1.155 ps=7.33 w=7 l=1
X3 vdd.t75 vdd.t73 vdd.t74 vdd.t61 sky130_fd_pr__pfet_01v8_lvt ad=3.12 pd=16.78 as=0 ps=0 w=8 l=0.5
X4 vdd.t148 a_n6308_8799.t32 CSoutput.t67 vdd.t147 sky130_fd_pr__pfet_01v8_lvt ad=1.32 pd=8.33 as=1.32 ps=8.33 w=8 l=0.5
X5 a_n1986_8322.t6 a_n1986_13878.t44 vdd.t189 vdd.t188 sky130_fd_pr__pfet_01v8_lvt ad=1.485 pd=9.33 as=1.485 ps=9.33 w=9 l=0.5
X6 a_n1808_13878.t19 a_n1986_13878.t20 a_n1986_13878.t21 vdd.t88 sky130_fd_pr__pfet_01v8_lvt ad=1.485 pd=9.33 as=3.51 ps=18.78 w=9 l=0.5
X7 gnd.t133 commonsourceibias.t65 CSoutput.t112 gnd.t101 sky130_fd_pr__nfet_01v8 ad=1.155 pd=7.33 as=1.155 ps=7.33 w=7 l=1
X8 a_n1986_13878.t11 a_n1986_13878.t10 a_n1808_13878.t18 vdd.t192 sky130_fd_pr__pfet_01v8_lvt ad=1.485 pd=9.33 as=1.485 ps=9.33 w=9 l=0.5
X9 a_n1808_13878.t17 a_n1986_13878.t18 a_n1986_13878.t19 vdd.t153 sky130_fd_pr__pfet_01v8_lvt ad=1.485 pd=9.33 as=1.485 ps=9.33 w=9 l=0.5
X10 vdd.t72 vdd.t70 vdd.t71 vdd.t44 sky130_fd_pr__pfet_01v8_lvt ad=3.51 pd=18.78 as=0 ps=0 w=9 l=0.5
X11 CSoutput.t68 a_n6308_8799.t33 vdd.t149 vdd.t145 sky130_fd_pr__pfet_01v8_lvt ad=1.32 pd=8.33 as=1.32 ps=8.33 w=8 l=0.5
X12 a_n1808_13878.t7 a_n1986_13878.t45 vdd.t219 vdd.t218 sky130_fd_pr__pfet_01v8_lvt ad=1.485 pd=9.33 as=1.485 ps=9.33 w=9 l=0.5
X13 vdd.t69 vdd.t67 vdd.t68 vdd.t61 sky130_fd_pr__pfet_01v8_lvt ad=3.12 pd=16.78 as=0 ps=0 w=8 l=0.5
X14 vdd.t66 vdd.t64 vdd.t65 vdd.t12 sky130_fd_pr__pfet_01v8_lvt ad=3.12 pd=16.78 as=0 ps=0 w=8 l=0.5
X15 gnd.t269 gnd.t267 gnd.t268 gnd.t171 sky130_fd_pr__nfet_01v8 ad=2.73 pd=14.78 as=0 ps=0 w=7 l=1
X16 gnd.t132 commonsourceibias.t44 commonsourceibias.t45 gnd.t32 sky130_fd_pr__nfet_01v8 ad=1.155 pd=7.33 as=1.155 ps=7.33 w=7 l=1
X17 vdd.t213 CSoutput.t137 output.t18 gnd.t304 sky130_fd_pr__nfet_01v8_lvt ad=0.825 pd=5.33 as=0.825 ps=5.33 w=5 l=1
X18 CSoutput.t46 a_n6308_8799.t34 vdd.t129 vdd.t100 sky130_fd_pr__pfet_01v8_lvt ad=1.32 pd=8.33 as=1.32 ps=8.33 w=8 l=0.5
X19 gnd.t131 commonsourceibias.t66 CSoutput.t57 gnd.t32 sky130_fd_pr__nfet_01v8 ad=1.155 pd=7.33 as=1.155 ps=7.33 w=7 l=1
X20 CSoutput.t47 a_n6308_8799.t35 vdd.t131 vdd.t130 sky130_fd_pr__pfet_01v8_lvt ad=1.32 pd=8.33 as=1.32 ps=8.33 w=8 l=0.5
X21 minus.t4 gnd.t264 gnd.t266 gnd.t265 sky130_fd_pr__nfet_01v8 ad=0.165 pd=1.33 as=0.165 ps=1.33 w=1 l=0.5
X22 gnd.t263 gnd.t261 plus.t4 gnd.t262 sky130_fd_pr__nfet_01v8 ad=0.39 pd=2.78 as=0.165 ps=1.33 w=1 l=0.5
X23 gnd.t130 commonsourceibias.t67 CSoutput.t56 gnd.t41 sky130_fd_pr__nfet_01v8 ad=1.155 pd=7.33 as=1.155 ps=7.33 w=7 l=1
X24 a_n6308_8799.t7 plus.t5 a_n2903_n3924.t19 gnd.t159 sky130_fd_pr__nfet_01v8 ad=1.155 pd=7.33 as=1.155 ps=7.33 w=7 l=0.5
X25 output.t17 CSoutput.t138 vdd.t200 gnd.t303 sky130_fd_pr__nfet_01v8_lvt ad=1.95 pd=10.78 as=0.825 ps=5.33 w=5 l=1
X26 a_n1986_8322.t10 a_n1986_13878.t46 a_n6308_8799.t21 vdd.t80 sky130_fd_pr__pfet_01v8_lvt ad=1.485 pd=9.33 as=1.485 ps=9.33 w=9 l=0.5
X27 gnd.t116 commonsourceibias.t48 commonsourceibias.t49 gnd.t53 sky130_fd_pr__nfet_01v8 ad=1.155 pd=7.33 as=1.155 ps=7.33 w=7 l=1
X28 CSoutput.t139 a_n1986_8322.t9 sky130_fd_pr__cap_mim_m3_1 l=12 w=12
X29 output.t1 outputibias.t8 gnd.t139 gnd.t138 sky130_fd_pr__nfet_01v8 ad=2.34 pd=12.78 as=2.34 ps=12.78 w=6 l=2
X30 a_n6308_8799.t16 plus.t6 a_n2903_n3924.t18 gnd.t288 sky130_fd_pr__nfet_01v8 ad=1.155 pd=7.33 as=1.155 ps=7.33 w=7 l=0.5
X31 gnd.t260 gnd.t258 gnd.t259 gnd.t204 sky130_fd_pr__nfet_01v8 ad=2.73 pd=14.78 as=0 ps=0 w=7 l=1
X32 CSoutput.t124 commonsourceibias.t68 gnd.t129 gnd.t25 sky130_fd_pr__nfet_01v8 ad=1.155 pd=7.33 as=1.155 ps=7.33 w=7 l=1
X33 gnd.t128 commonsourceibias.t42 commonsourceibias.t43 gnd.t98 sky130_fd_pr__nfet_01v8 ad=1.155 pd=7.33 as=1.155 ps=7.33 w=7 l=1
X34 CSoutput.t44 a_n6308_8799.t36 vdd.t127 vdd.t126 sky130_fd_pr__pfet_01v8_lvt ad=1.32 pd=8.33 as=1.32 ps=8.33 w=8 l=0.5
X35 vdd.t128 a_n6308_8799.t37 CSoutput.t45 vdd.t120 sky130_fd_pr__pfet_01v8_lvt ad=1.32 pd=8.33 as=1.32 ps=8.33 w=8 l=0.5
X36 output.t0 outputibias.t9 gnd.t4 gnd.t3 sky130_fd_pr__nfet_01v8 ad=2.34 pd=12.78 as=2.34 ps=12.78 w=6 l=2
X37 a_n6308_8799.t24 a_n1986_13878.t47 a_n1986_8322.t11 vdd.t88 sky130_fd_pr__pfet_01v8_lvt ad=1.485 pd=9.33 as=3.51 ps=18.78 w=9 l=0.5
X38 CSoutput.t15 a_n6308_8799.t38 vdd.t85 vdd.t84 sky130_fd_pr__pfet_01v8_lvt ad=1.32 pd=8.33 as=3.12 ps=16.78 w=8 l=0.5
X39 vdd.t87 a_n6308_8799.t39 CSoutput.t16 vdd.t86 sky130_fd_pr__pfet_01v8_lvt ad=1.32 pd=8.33 as=1.32 ps=8.33 w=8 l=0.5
X40 a_n2903_n3924.t39 minus.t5 a_n1986_13878.t25 gnd.t280 sky130_fd_pr__nfet_01v8 ad=1.155 pd=7.33 as=1.155 ps=7.33 w=7 l=0.5
X41 CSoutput.t10 commonsourceibias.t69 gnd.t127 gnd.t20 sky130_fd_pr__nfet_01v8 ad=1.155 pd=7.33 as=1.155 ps=7.33 w=7 l=1
X42 a_n2903_n3924.t45 diffpairibias.t16 gnd.t306 gnd.t305 sky130_fd_pr__nfet_01v8 ad=2.73 pd=14.78 as=2.73 ps=14.78 w=7 l=1
X43 vdd.t63 vdd.t60 vdd.t62 vdd.t61 sky130_fd_pr__pfet_01v8_lvt ad=3.12 pd=16.78 as=0 ps=0 w=8 l=0.5
X44 a_n1986_13878.t28 minus.t6 a_n2903_n3924.t38 gnd.t140 sky130_fd_pr__nfet_01v8 ad=1.155 pd=7.33 as=1.155 ps=7.33 w=7 l=0.5
X45 a_n2903_n3924.t17 plus.t7 a_n6308_8799.t8 gnd.t160 sky130_fd_pr__nfet_01v8 ad=1.155 pd=7.33 as=1.155 ps=7.33 w=7 l=0.5
X46 vdd.t210 CSoutput.t140 output.t16 gnd.t302 sky130_fd_pr__nfet_01v8_lvt ad=0.825 pd=5.33 as=1.95 ps=10.78 w=5 l=1
X47 output.t15 CSoutput.t141 vdd.t212 gnd.t301 sky130_fd_pr__nfet_01v8_lvt ad=0.825 pd=5.33 as=0.825 ps=5.33 w=5 l=1
X48 output.t19 outputibias.t10 gnd.t312 gnd.t311 sky130_fd_pr__nfet_01v8 ad=2.34 pd=12.78 as=2.34 ps=12.78 w=6 l=2
X49 CSoutput.t134 commonsourceibias.t70 gnd.t126 gnd.t16 sky130_fd_pr__nfet_01v8 ad=1.155 pd=7.33 as=1.155 ps=7.33 w=7 l=1
X50 a_n2903_n3924.t16 plus.t8 a_n6308_8799.t1 gnd.t5 sky130_fd_pr__nfet_01v8 ad=1.155 pd=7.33 as=1.155 ps=7.33 w=7 l=0.5
X51 a_n2903_n3924.t37 minus.t7 a_n1986_13878.t34 gnd.t156 sky130_fd_pr__nfet_01v8 ad=1.155 pd=7.33 as=1.155 ps=7.33 w=7 l=0.5
X52 CSoutput.t65 a_n6308_8799.t40 vdd.t144 vdd.t76 sky130_fd_pr__pfet_01v8_lvt ad=1.32 pd=8.33 as=1.32 ps=8.33 w=8 l=0.5
X53 CSoutput.t66 a_n6308_8799.t41 vdd.t146 vdd.t145 sky130_fd_pr__pfet_01v8_lvt ad=1.32 pd=8.33 as=1.32 ps=8.33 w=8 l=0.5
X54 vdd.t59 vdd.t57 vdd.t58 vdd.t1 sky130_fd_pr__pfet_01v8_lvt ad=3.12 pd=16.78 as=0 ps=0 w=8 l=0.5
X55 gnd.t125 commonsourceibias.t54 commonsourceibias.t55 gnd.t61 sky130_fd_pr__nfet_01v8 ad=2.73 pd=14.78 as=1.155 ps=7.33 w=7 l=1
X56 CSoutput.t4 commonsourceibias.t71 gnd.t124 gnd.t105 sky130_fd_pr__nfet_01v8 ad=1.155 pd=7.33 as=1.155 ps=7.33 w=7 l=1
X57 CSoutput.t98 a_n6308_8799.t42 vdd.t180 vdd.t130 sky130_fd_pr__pfet_01v8_lvt ad=1.32 pd=8.33 as=1.32 ps=8.33 w=8 l=0.5
X58 a_n2903_n3924.t36 minus.t8 a_n1986_13878.t33 gnd.t285 sky130_fd_pr__nfet_01v8 ad=1.155 pd=7.33 as=1.155 ps=7.33 w=7 l=0.5
X59 a_n1808_13878.t16 a_n1986_13878.t14 a_n1986_13878.t15 vdd.t161 sky130_fd_pr__pfet_01v8_lvt ad=1.485 pd=9.33 as=3.51 ps=18.78 w=9 l=0.5
X60 vdd.t181 a_n6308_8799.t43 CSoutput.t99 vdd.t86 sky130_fd_pr__pfet_01v8_lvt ad=1.32 pd=8.33 as=1.32 ps=8.33 w=8 l=0.5
X61 diffpairibias.t15 diffpairibias.t14 gnd.t314 gnd.t313 sky130_fd_pr__nfet_01v8 ad=2.73 pd=14.78 as=2.73 ps=14.78 w=7 l=1
X62 a_n1986_13878.t1 a_n1986_13878.t0 a_n1808_13878.t15 vdd.t150 sky130_fd_pr__pfet_01v8_lvt ad=1.485 pd=9.33 as=1.485 ps=9.33 w=9 l=0.5
X63 CSoutput.t63 a_n6308_8799.t44 vdd.t142 vdd.t95 sky130_fd_pr__pfet_01v8_lvt ad=1.32 pd=8.33 as=1.32 ps=8.33 w=8 l=0.5
X64 vdd.t56 vdd.t54 vdd.t55 vdd.t29 sky130_fd_pr__pfet_01v8_lvt ad=3.51 pd=18.78 as=0 ps=0 w=9 l=0.5
X65 gnd.t257 gnd.t256 plus.t3 gnd.t186 sky130_fd_pr__nfet_01v8 ad=0.165 pd=1.33 as=0.165 ps=1.33 w=1 l=0.5
X66 gnd.t255 gnd.t253 gnd.t254 gnd.t186 sky130_fd_pr__nfet_01v8 ad=2.73 pd=14.78 as=0 ps=0 w=7 l=0.5
X67 minus.t3 gnd.t250 gnd.t252 gnd.t251 sky130_fd_pr__nfet_01v8 ad=0.165 pd=1.33 as=0.165 ps=1.33 w=1 l=0.5
X68 gnd.t123 commonsourceibias.t72 CSoutput.t69 gnd.t101 sky130_fd_pr__nfet_01v8 ad=1.155 pd=7.33 as=1.155 ps=7.33 w=7 l=1
X69 gnd.t122 commonsourceibias.t73 CSoutput.t27 gnd.t8 sky130_fd_pr__nfet_01v8 ad=1.155 pd=7.33 as=1.155 ps=7.33 w=7 l=1
X70 diffpairibias.t13 diffpairibias.t12 gnd.t148 gnd.t147 sky130_fd_pr__nfet_01v8 ad=2.73 pd=14.78 as=2.73 ps=14.78 w=7 l=1
X71 gnd.t121 commonsourceibias.t74 CSoutput.t73 gnd.t98 sky130_fd_pr__nfet_01v8 ad=1.155 pd=7.33 as=1.155 ps=7.33 w=7 l=1
X72 commonsourceibias.t53 commonsourceibias.t52 gnd.t120 gnd.t25 sky130_fd_pr__nfet_01v8 ad=1.155 pd=7.33 as=1.155 ps=7.33 w=7 l=1
X73 vdd.t143 a_n6308_8799.t45 CSoutput.t64 vdd.t86 sky130_fd_pr__pfet_01v8_lvt ad=1.32 pd=8.33 as=1.32 ps=8.33 w=8 l=0.5
X74 vdd.t207 CSoutput.t142 output.t14 gnd.t300 sky130_fd_pr__nfet_01v8_lvt ad=0.825 pd=5.33 as=0.825 ps=5.33 w=5 l=1
X75 vdd.t124 a_n6308_8799.t46 CSoutput.t42 vdd.t114 sky130_fd_pr__pfet_01v8_lvt ad=1.32 pd=8.33 as=1.32 ps=8.33 w=8 l=0.5
X76 CSoutput.t43 a_n6308_8799.t47 vdd.t125 vdd.t84 sky130_fd_pr__pfet_01v8_lvt ad=1.32 pd=8.33 as=3.12 ps=16.78 w=8 l=0.5
X77 gnd.t119 commonsourceibias.t75 CSoutput.t132 gnd.t41 sky130_fd_pr__nfet_01v8 ad=1.155 pd=7.33 as=1.155 ps=7.33 w=7 l=1
X78 CSoutput.t143 a_n1986_8322.t9 sky130_fd_pr__cap_mim_m3_1 l=12 w=12
X79 commonsourceibias.t51 commonsourceibias.t50 gnd.t118 gnd.t55 sky130_fd_pr__nfet_01v8 ad=1.155 pd=7.33 as=1.155 ps=7.33 w=7 l=1
X80 vdd.t178 a_n6308_8799.t48 CSoutput.t96 vdd.t102 sky130_fd_pr__pfet_01v8_lvt ad=1.32 pd=8.33 as=1.32 ps=8.33 w=8 l=0.5
X81 gnd.t117 commonsourceibias.t76 CSoutput.t119 gnd.t91 sky130_fd_pr__nfet_01v8 ad=1.155 pd=7.33 as=1.155 ps=7.33 w=7 l=1
X82 a_n6308_8799.t0 plus.t9 a_n2903_n3924.t15 gnd.t0 sky130_fd_pr__nfet_01v8 ad=1.155 pd=7.33 as=1.155 ps=7.33 w=7 l=0.5
X83 commonsourceibias.t63 commonsourceibias.t62 gnd.t115 gnd.t45 sky130_fd_pr__nfet_01v8 ad=1.155 pd=7.33 as=1.155 ps=7.33 w=7 l=1
X84 CSoutput.t97 a_n6308_8799.t49 vdd.t179 vdd.t76 sky130_fd_pr__pfet_01v8_lvt ad=1.32 pd=8.33 as=1.32 ps=8.33 w=8 l=0.5
X85 CSoutput.t23 a_n6308_8799.t50 vdd.t98 vdd.t97 sky130_fd_pr__pfet_01v8_lvt ad=1.32 pd=8.33 as=1.32 ps=8.33 w=8 l=0.5
X86 CSoutput.t1 commonsourceibias.t77 gnd.t114 gnd.t89 sky130_fd_pr__nfet_01v8 ad=1.155 pd=7.33 as=2.73 ps=14.78 w=7 l=1
X87 a_n2903_n3924.t40 diffpairibias.t17 gnd.t7 gnd.t6 sky130_fd_pr__nfet_01v8 ad=2.73 pd=14.78 as=2.73 ps=14.78 w=7 l=1
X88 gnd.t113 commonsourceibias.t60 commonsourceibias.t61 gnd.t91 sky130_fd_pr__nfet_01v8 ad=1.155 pd=7.33 as=1.155 ps=7.33 w=7 l=1
X89 CSoutput.t24 a_n6308_8799.t51 vdd.t99 vdd.t97 sky130_fd_pr__pfet_01v8_lvt ad=1.32 pd=8.33 as=1.32 ps=8.33 w=8 l=0.5
X90 a_n2903_n3924.t35 minus.t9 a_n1986_13878.t43 gnd.t137 sky130_fd_pr__nfet_01v8 ad=1.155 pd=7.33 as=1.155 ps=7.33 w=7 l=0.5
X91 vdd.t122 a_n6308_8799.t52 CSoutput.t40 vdd.t118 sky130_fd_pr__pfet_01v8_lvt ad=1.32 pd=8.33 as=1.32 ps=8.33 w=8 l=0.5
X92 a_n2903_n3924.t14 plus.t10 a_n6308_8799.t2 gnd.t136 sky130_fd_pr__nfet_01v8 ad=1.155 pd=7.33 as=1.155 ps=7.33 w=7 l=0.5
X93 a_n1986_13878.t32 minus.t10 a_n2903_n3924.t34 gnd.t149 sky130_fd_pr__nfet_01v8 ad=1.155 pd=7.33 as=1.155 ps=7.33 w=7 l=0.5
X94 gnd.t112 commonsourceibias.t58 commonsourceibias.t59 gnd.t82 sky130_fd_pr__nfet_01v8 ad=2.73 pd=14.78 as=1.155 ps=7.33 w=7 l=1
X95 gnd.t249 gnd.t247 gnd.t248 gnd.t204 sky130_fd_pr__nfet_01v8 ad=2.73 pd=14.78 as=0 ps=0 w=7 l=1
X96 commonsourceibias.t57 commonsourceibias.t56 gnd.t111 gnd.t16 sky130_fd_pr__nfet_01v8 ad=1.155 pd=7.33 as=1.155 ps=7.33 w=7 l=1
X97 a_n1986_13878.t13 a_n1986_13878.t12 a_n1808_13878.t14 vdd.t80 sky130_fd_pr__pfet_01v8_lvt ad=1.485 pd=9.33 as=1.485 ps=9.33 w=9 l=0.5
X98 a_n1986_13878.t3 a_n1986_13878.t2 a_n1808_13878.t13 vdd.t134 sky130_fd_pr__pfet_01v8_lvt ad=3.51 pd=18.78 as=1.485 ps=9.33 w=9 l=0.5
X99 vdd.t123 a_n6308_8799.t53 CSoutput.t41 vdd.t120 sky130_fd_pr__pfet_01v8_lvt ad=1.32 pd=8.33 as=1.32 ps=8.33 w=8 l=0.5
X100 vdd.t176 a_n6308_8799.t54 CSoutput.t94 vdd.t109 sky130_fd_pr__pfet_01v8_lvt ad=1.32 pd=8.33 as=1.32 ps=8.33 w=8 l=0.5
X101 a_n6308_8799.t25 a_n1986_13878.t48 a_n1986_8322.t12 vdd.t105 sky130_fd_pr__pfet_01v8_lvt ad=1.485 pd=9.33 as=1.485 ps=9.33 w=9 l=0.5
X102 CSoutput.t118 commonsourceibias.t78 gnd.t110 gnd.t20 sky130_fd_pr__nfet_01v8 ad=1.155 pd=7.33 as=1.155 ps=7.33 w=7 l=1
X103 vdd.t177 a_n6308_8799.t55 CSoutput.t95 vdd.t118 sky130_fd_pr__pfet_01v8_lvt ad=1.32 pd=8.33 as=1.32 ps=8.33 w=8 l=0.5
X104 a_n2903_n3924.t33 minus.t11 a_n1986_13878.t31 gnd.t284 sky130_fd_pr__nfet_01v8 ad=2.73 pd=14.78 as=1.155 ps=7.33 w=7 l=0.5
X105 CSoutput.t87 commonsourceibias.t79 gnd.t109 gnd.t78 sky130_fd_pr__nfet_01v8 ad=1.155 pd=7.33 as=1.155 ps=7.33 w=7 l=1
X106 CSoutput.t75 commonsourceibias.t80 gnd.t108 gnd.t85 sky130_fd_pr__nfet_01v8 ad=1.155 pd=7.33 as=1.155 ps=7.33 w=7 l=1
X107 vdd.t174 a_n6308_8799.t56 CSoutput.t92 vdd.t136 sky130_fd_pr__pfet_01v8_lvt ad=3.12 pd=16.78 as=1.32 ps=8.33 w=8 l=0.5
X108 gnd.t107 commonsourceibias.t81 CSoutput.t2 gnd.t82 sky130_fd_pr__nfet_01v8 ad=2.73 pd=14.78 as=1.155 ps=7.33 w=7 l=1
X109 commonsourceibias.t19 commonsourceibias.t18 gnd.t104 gnd.t39 sky130_fd_pr__nfet_01v8 ad=1.155 pd=7.33 as=1.155 ps=7.33 w=7 l=1
X110 CSoutput.t93 a_n6308_8799.t57 vdd.t175 vdd.t138 sky130_fd_pr__pfet_01v8_lvt ad=1.32 pd=8.33 as=1.32 ps=8.33 w=8 l=0.5
X111 CSoutput.t54 commonsourceibias.t82 gnd.t106 gnd.t105 sky130_fd_pr__nfet_01v8 ad=1.155 pd=7.33 as=1.155 ps=7.33 w=7 l=1
X112 CSoutput.t144 a_n1986_8322.t9 sky130_fd_pr__cap_mim_m3_1 l=12 w=12
X113 vdd.t140 a_n6308_8799.t58 CSoutput.t61 vdd.t114 sky130_fd_pr__pfet_01v8_lvt ad=1.32 pd=8.33 as=1.32 ps=8.33 w=8 l=0.5
X114 vdd.t53 vdd.t51 vdd.t52 vdd.t37 sky130_fd_pr__pfet_01v8_lvt ad=3.51 pd=18.78 as=0 ps=0 w=9 l=0.5
X115 vdd.t50 vdd.t47 vdd.t49 vdd.t48 sky130_fd_pr__pfet_01v8_lvt ad=3.51 pd=18.78 as=0 ps=0 w=9 l=0.5
X116 gnd.t103 commonsourceibias.t83 CSoutput.t7 gnd.t58 sky130_fd_pr__nfet_01v8 ad=1.155 pd=7.33 as=1.155 ps=7.33 w=7 l=1
X117 a_n1986_13878.t27 minus.t12 a_n2903_n3924.t32 gnd.t277 sky130_fd_pr__nfet_01v8 ad=1.155 pd=7.33 as=1.155 ps=7.33 w=7 l=0.5
X118 output.t2 outputibias.t11 gnd.t151 gnd.t150 sky130_fd_pr__nfet_01v8 ad=2.34 pd=12.78 as=2.34 ps=12.78 w=6 l=2
X119 a_n2903_n3924.t44 diffpairibias.t18 gnd.t282 gnd.t281 sky130_fd_pr__nfet_01v8 ad=2.73 pd=14.78 as=2.73 ps=14.78 w=7 l=1
X120 vdd.t46 vdd.t43 vdd.t45 vdd.t44 sky130_fd_pr__pfet_01v8_lvt ad=3.51 pd=18.78 as=0 ps=0 w=9 l=0.5
X121 CSoutput.t145 a_n1986_8322.t9 sky130_fd_pr__cap_mim_m3_1 l=12 w=12
X122 commonsourceibias.t15 commonsourceibias.t14 gnd.t96 gnd.t85 sky130_fd_pr__nfet_01v8 ad=1.155 pd=7.33 as=1.155 ps=7.33 w=7 l=1
X123 vdd.t165 a_n1986_13878.t49 a_n1986_8322.t4 vdd.t164 sky130_fd_pr__pfet_01v8_lvt ad=1.485 pd=9.33 as=1.485 ps=9.33 w=9 l=0.5
X124 vdd.t42 vdd.t40 vdd.t41 vdd.t33 sky130_fd_pr__pfet_01v8_lvt ad=3.51 pd=18.78 as=0 ps=0 w=9 l=0.5
X125 a_n2903_n3924.t13 plus.t11 a_n6308_8799.t12 gnd.t273 sky130_fd_pr__nfet_01v8 ad=1.155 pd=7.33 as=1.155 ps=7.33 w=7 l=0.5
X126 CSoutput.t62 a_n6308_8799.t59 vdd.t141 vdd.t97 sky130_fd_pr__pfet_01v8_lvt ad=1.32 pd=8.33 as=1.32 ps=8.33 w=8 l=0.5
X127 a_n1986_8322.t5 a_n1986_13878.t50 vdd.t167 vdd.t166 sky130_fd_pr__pfet_01v8_lvt ad=1.485 pd=9.33 as=1.485 ps=9.33 w=9 l=0.5
X128 vdd.t119 a_n6308_8799.t60 CSoutput.t38 vdd.t118 sky130_fd_pr__pfet_01v8_lvt ad=1.32 pd=8.33 as=1.32 ps=8.33 w=8 l=0.5
X129 gnd.t102 commonsourceibias.t16 commonsourceibias.t17 gnd.t101 sky130_fd_pr__nfet_01v8 ad=1.155 pd=7.33 as=1.155 ps=7.33 w=7 l=1
X130 gnd.t100 commonsourceibias.t84 CSoutput.t72 gnd.t8 sky130_fd_pr__nfet_01v8 ad=1.155 pd=7.33 as=1.155 ps=7.33 w=7 l=1
X131 vdd.t155 a_n1986_13878.t51 a_n1808_13878.t6 vdd.t154 sky130_fd_pr__pfet_01v8_lvt ad=1.485 pd=9.33 as=1.485 ps=9.33 w=9 l=0.5
X132 gnd.t99 commonsourceibias.t85 CSoutput.t9 gnd.t98 sky130_fd_pr__nfet_01v8 ad=1.155 pd=7.33 as=1.155 ps=7.33 w=7 l=1
X133 a_n1986_13878.t26 minus.t13 a_n2903_n3924.t31 gnd.t283 sky130_fd_pr__nfet_01v8 ad=1.155 pd=7.33 as=1.155 ps=7.33 w=7 l=0.5
X134 a_n6308_8799.t11 plus.t12 a_n2903_n3924.t12 gnd.t270 sky130_fd_pr__nfet_01v8 ad=1.155 pd=7.33 as=2.73 ps=14.78 w=7 l=0.5
X135 gnd.t97 commonsourceibias.t86 CSoutput.t127 gnd.t49 sky130_fd_pr__nfet_01v8 ad=1.155 pd=7.33 as=1.155 ps=7.33 w=7 l=1
X136 commonsourceibias.t13 commonsourceibias.t12 gnd.t95 gnd.t47 sky130_fd_pr__nfet_01v8 ad=1.155 pd=7.33 as=1.155 ps=7.33 w=7 l=1
X137 vdd.t39 vdd.t36 vdd.t38 vdd.t37 sky130_fd_pr__pfet_01v8_lvt ad=3.51 pd=18.78 as=0 ps=0 w=9 l=0.5
X138 vdd.t202 CSoutput.t146 output.t13 gnd.t299 sky130_fd_pr__nfet_01v8_lvt ad=0.825 pd=5.33 as=0.825 ps=5.33 w=5 l=1
X139 diffpairibias.t11 diffpairibias.t10 gnd.t272 gnd.t271 sky130_fd_pr__nfet_01v8 ad=2.73 pd=14.78 as=2.73 ps=14.78 w=7 l=1
X140 vdd.t35 vdd.t32 vdd.t34 vdd.t33 sky130_fd_pr__pfet_01v8_lvt ad=3.51 pd=18.78 as=0 ps=0 w=9 l=0.5
X141 vdd.t121 a_n6308_8799.t61 CSoutput.t39 vdd.t120 sky130_fd_pr__pfet_01v8_lvt ad=1.32 pd=8.33 as=1.32 ps=8.33 w=8 l=0.5
X142 gnd.t94 commonsourceibias.t87 CSoutput.t120 gnd.t68 sky130_fd_pr__nfet_01v8 ad=1.155 pd=7.33 as=1.155 ps=7.33 w=7 l=1
X143 gnd.t246 gnd.t243 gnd.t245 gnd.t244 sky130_fd_pr__nfet_01v8 ad=2.34 pd=12.78 as=0 ps=0 w=6 l=2
X144 a_n6308_8799.t10 a_n1986_13878.t52 a_n1986_8322.t2 vdd.t104 sky130_fd_pr__pfet_01v8_lvt ad=1.485 pd=9.33 as=1.485 ps=9.33 w=9 l=0.5
X145 a_n1986_8322.t0 a_n1986_13878.t53 vdd.t152 vdd.t151 sky130_fd_pr__pfet_01v8_lvt ad=3.51 pd=18.78 as=1.485 ps=9.33 w=9 l=0.5
X146 vdd.t31 vdd.t28 vdd.t30 vdd.t29 sky130_fd_pr__pfet_01v8_lvt ad=3.51 pd=18.78 as=0 ps=0 w=9 l=0.5
X147 plus.t2 gnd.t240 gnd.t242 gnd.t241 sky130_fd_pr__nfet_01v8 ad=0.165 pd=1.33 as=0.165 ps=1.33 w=1 l=0.5
X148 CSoutput.t76 commonsourceibias.t88 gnd.t93 gnd.t89 sky130_fd_pr__nfet_01v8 ad=1.155 pd=7.33 as=2.73 ps=14.78 w=7 l=1
X149 gnd.t92 commonsourceibias.t89 CSoutput.t55 gnd.t91 sky130_fd_pr__nfet_01v8 ad=1.155 pd=7.33 as=1.155 ps=7.33 w=7 l=1
X150 vdd.t137 a_n6308_8799.t62 CSoutput.t59 vdd.t136 sky130_fd_pr__pfet_01v8_lvt ad=3.12 pd=16.78 as=1.32 ps=8.33 w=8 l=0.5
X151 a_n1986_13878.t7 a_n1986_13878.t6 a_n1808_13878.t12 vdd.t135 sky130_fd_pr__pfet_01v8_lvt ad=1.485 pd=9.33 as=1.485 ps=9.33 w=9 l=0.5
X152 commonsourceibias.t33 commonsourceibias.t32 gnd.t90 gnd.t89 sky130_fd_pr__nfet_01v8 ad=1.155 pd=7.33 as=2.73 ps=14.78 w=7 l=1
X153 CSoutput.t60 a_n6308_8799.t63 vdd.t139 vdd.t138 sky130_fd_pr__pfet_01v8_lvt ad=1.32 pd=8.33 as=1.32 ps=8.33 w=8 l=0.5
X154 a_n6308_8799.t9 a_n1986_13878.t54 a_n1986_8322.t1 vdd.t153 sky130_fd_pr__pfet_01v8_lvt ad=1.485 pd=9.33 as=1.485 ps=9.33 w=9 l=0.5
X155 gnd.t239 gnd.t237 minus.t2 gnd.t238 sky130_fd_pr__nfet_01v8 ad=0.39 pd=2.78 as=0.165 ps=1.33 w=1 l=0.5
X156 CSoutput.t110 commonsourceibias.t90 gnd.t88 gnd.t29 sky130_fd_pr__nfet_01v8 ad=1.155 pd=7.33 as=1.155 ps=7.33 w=7 l=1
X157 a_n1986_13878.t35 minus.t14 a_n2903_n3924.t30 gnd.t286 sky130_fd_pr__nfet_01v8 ad=1.155 pd=7.33 as=1.155 ps=7.33 w=7 l=0.5
X158 a_n1808_13878.t11 a_n1986_13878.t8 a_n1986_13878.t9 vdd.t105 sky130_fd_pr__pfet_01v8_lvt ad=1.485 pd=9.33 as=1.485 ps=9.33 w=9 l=0.5
X159 vdd.t157 a_n1986_13878.t55 a_n1986_8322.t3 vdd.t156 sky130_fd_pr__pfet_01v8_lvt ad=1.485 pd=9.33 as=3.51 ps=18.78 w=9 l=0.5
X160 gnd.t236 gnd.t233 gnd.t235 gnd.t234 sky130_fd_pr__nfet_01v8 ad=2.73 pd=14.78 as=0 ps=0 w=7 l=1
X161 a_n2903_n3924.t43 diffpairibias.t19 gnd.t275 gnd.t274 sky130_fd_pr__nfet_01v8 ad=2.73 pd=14.78 as=2.73 ps=14.78 w=7 l=1
X162 CSoutput.t28 commonsourceibias.t91 gnd.t87 gnd.t78 sky130_fd_pr__nfet_01v8 ad=1.155 pd=7.33 as=1.155 ps=7.33 w=7 l=1
X163 CSoutput.t36 a_n6308_8799.t64 vdd.t116 vdd.t95 sky130_fd_pr__pfet_01v8_lvt ad=1.32 pd=8.33 as=1.32 ps=8.33 w=8 l=0.5
X164 CSoutput.t84 commonsourceibias.t92 gnd.t86 gnd.t85 sky130_fd_pr__nfet_01v8 ad=1.155 pd=7.33 as=1.155 ps=7.33 w=7 l=1
X165 a_n1986_13878.t39 minus.t15 a_n2903_n3924.t29 gnd.t159 sky130_fd_pr__nfet_01v8 ad=1.155 pd=7.33 as=1.155 ps=7.33 w=7 l=0.5
X166 CSoutput.t115 commonsourceibias.t93 gnd.t84 gnd.t12 sky130_fd_pr__nfet_01v8 ad=1.155 pd=7.33 as=1.155 ps=7.33 w=7 l=1
X167 a_n2903_n3924.t47 diffpairibias.t20 gnd.t318 gnd.t317 sky130_fd_pr__nfet_01v8 ad=2.73 pd=14.78 as=2.73 ps=14.78 w=7 l=1
X168 vdd.t117 a_n6308_8799.t65 CSoutput.t37 vdd.t112 sky130_fd_pr__pfet_01v8_lvt ad=3.12 pd=16.78 as=1.32 ps=8.33 w=8 l=0.5
X169 gnd.t83 commonsourceibias.t94 CSoutput.t100 gnd.t82 sky130_fd_pr__nfet_01v8 ad=2.73 pd=14.78 as=1.155 ps=7.33 w=7 l=1
X170 gnd.t81 commonsourceibias.t95 CSoutput.t58 gnd.t61 sky130_fd_pr__nfet_01v8 ad=2.73 pd=14.78 as=1.155 ps=7.33 w=7 l=1
X171 gnd.t232 gnd.t230 minus.t1 gnd.t231 sky130_fd_pr__nfet_01v8 ad=0.165 pd=1.33 as=0.39 ps=2.78 w=1 l=0.5
X172 CSoutput.t17 commonsourceibias.t96 gnd.t80 gnd.t37 sky130_fd_pr__nfet_01v8 ad=1.155 pd=7.33 as=1.155 ps=7.33 w=7 l=1
X173 commonsourceibias.t37 commonsourceibias.t36 gnd.t79 gnd.t78 sky130_fd_pr__nfet_01v8 ad=1.155 pd=7.33 as=1.155 ps=7.33 w=7 l=1
X174 vdd.t198 CSoutput.t147 output.t12 gnd.t298 sky130_fd_pr__nfet_01v8_lvt ad=0.825 pd=5.33 as=0.825 ps=5.33 w=5 l=1
X175 vdd.t172 a_n6308_8799.t66 CSoutput.t90 vdd.t91 sky130_fd_pr__pfet_01v8_lvt ad=1.32 pd=8.33 as=1.32 ps=8.33 w=8 l=0.5
X176 gnd.t77 commonsourceibias.t97 CSoutput.t108 gnd.t58 sky130_fd_pr__nfet_01v8 ad=1.155 pd=7.33 as=1.155 ps=7.33 w=7 l=1
X177 gnd.t229 gnd.t227 gnd.t228 gnd.t167 sky130_fd_pr__nfet_01v8 ad=2.73 pd=14.78 as=0 ps=0 w=7 l=0.5
X178 gnd.t226 gnd.t223 gnd.t225 gnd.t224 sky130_fd_pr__nfet_01v8_lvt ad=1.95 pd=10.78 as=0 ps=0 w=5 l=1
X179 a_n1986_13878.t38 minus.t16 a_n2903_n3924.t28 gnd.t288 sky130_fd_pr__nfet_01v8 ad=1.155 pd=7.33 as=1.155 ps=7.33 w=7 l=0.5
X180 CSoutput.t74 commonsourceibias.t98 gnd.t76 gnd.t55 sky130_fd_pr__nfet_01v8 ad=1.155 pd=7.33 as=1.155 ps=7.33 w=7 l=1
X181 gnd.t222 gnd.t220 gnd.t221 gnd.t182 sky130_fd_pr__nfet_01v8 ad=2.73 pd=14.78 as=0 ps=0 w=7 l=1
X182 diffpairibias.t9 diffpairibias.t8 gnd.t310 gnd.t309 sky130_fd_pr__nfet_01v8 ad=2.73 pd=14.78 as=2.73 ps=14.78 w=7 l=1
X183 CSoutput.t91 a_n6308_8799.t67 vdd.t173 vdd.t145 sky130_fd_pr__pfet_01v8_lvt ad=1.32 pd=8.33 as=1.32 ps=8.33 w=8 l=0.5
X184 a_n2903_n3924.t11 plus.t13 a_n6308_8799.t15 gnd.t280 sky130_fd_pr__nfet_01v8 ad=1.155 pd=7.33 as=1.155 ps=7.33 w=7 l=0.5
X185 CSoutput.t21 a_n6308_8799.t68 vdd.t94 vdd.t93 sky130_fd_pr__pfet_01v8_lvt ad=1.32 pd=8.33 as=1.32 ps=8.33 w=8 l=0.5
X186 CSoutput.t125 commonsourceibias.t99 gnd.t75 gnd.t10 sky130_fd_pr__nfet_01v8 ad=1.155 pd=7.33 as=2.73 ps=14.78 w=7 l=1
X187 gnd.t74 commonsourceibias.t100 CSoutput.t20 gnd.t53 sky130_fd_pr__nfet_01v8 ad=1.155 pd=7.33 as=1.155 ps=7.33 w=7 l=1
X188 vdd.t27 vdd.t25 vdd.t26 vdd.t8 sky130_fd_pr__pfet_01v8_lvt ad=3.12 pd=16.78 as=0 ps=0 w=8 l=0.5
X189 a_n1808_13878.t5 a_n1986_13878.t56 vdd.t159 vdd.t158 sky130_fd_pr__pfet_01v8_lvt ad=1.485 pd=9.33 as=1.485 ps=9.33 w=9 l=0.5
X190 vdd.t231 a_n1986_13878.t57 a_n1808_13878.t4 vdd.t230 sky130_fd_pr__pfet_01v8_lvt ad=1.485 pd=9.33 as=1.485 ps=9.33 w=9 l=0.5
X191 a_n2903_n3924.t27 minus.t17 a_n1986_13878.t37 gnd.t5 sky130_fd_pr__nfet_01v8 ad=1.155 pd=7.33 as=1.155 ps=7.33 w=7 l=0.5
X192 a_n2903_n3924.t10 plus.t14 a_n6308_8799.t6 gnd.t156 sky130_fd_pr__nfet_01v8 ad=1.155 pd=7.33 as=1.155 ps=7.33 w=7 l=0.5
X193 gnd.t73 commonsourceibias.t34 commonsourceibias.t35 gnd.t27 sky130_fd_pr__nfet_01v8 ad=1.155 pd=7.33 as=1.155 ps=7.33 w=7 l=1
X194 gnd.t72 commonsourceibias.t101 CSoutput.t77 gnd.t49 sky130_fd_pr__nfet_01v8 ad=1.155 pd=7.33 as=1.155 ps=7.33 w=7 l=1
X195 a_n6308_8799.t13 plus.t15 a_n2903_n3924.t9 gnd.t276 sky130_fd_pr__nfet_01v8 ad=1.155 pd=7.33 as=2.73 ps=14.78 w=7 l=0.5
X196 a_n2903_n3924.t26 minus.t18 a_n1986_13878.t36 gnd.t287 sky130_fd_pr__nfet_01v8 ad=2.73 pd=14.78 as=1.155 ps=7.33 w=7 l=0.5
X197 gnd.t71 commonsourceibias.t102 CSoutput.t85 gnd.t68 sky130_fd_pr__nfet_01v8 ad=1.155 pd=7.33 as=1.155 ps=7.33 w=7 l=1
X198 CSoutput.t111 commonsourceibias.t103 gnd.t70 gnd.t47 sky130_fd_pr__nfet_01v8 ad=1.155 pd=7.33 as=1.155 ps=7.33 w=7 l=1
X199 diffpairibias.t7 diffpairibias.t6 gnd.t142 gnd.t141 sky130_fd_pr__nfet_01v8 ad=2.73 pd=14.78 as=2.73 ps=14.78 w=7 l=1
X200 CSoutput.t22 a_n6308_8799.t69 vdd.t96 vdd.t95 sky130_fd_pr__pfet_01v8_lvt ad=1.32 pd=8.33 as=1.32 ps=8.33 w=8 l=0.5
X201 gnd.t69 commonsourceibias.t40 commonsourceibias.t41 gnd.t68 sky130_fd_pr__nfet_01v8 ad=1.155 pd=7.33 as=1.155 ps=7.33 w=7 l=1
X202 output.t11 CSoutput.t148 vdd.t201 gnd.t297 sky130_fd_pr__nfet_01v8_lvt ad=0.825 pd=5.33 as=0.825 ps=5.33 w=5 l=1
X203 vdd.t113 a_n6308_8799.t70 CSoutput.t33 vdd.t112 sky130_fd_pr__pfet_01v8_lvt ad=3.12 pd=16.78 as=1.32 ps=8.33 w=8 l=0.5
X204 CSoutput.t135 commonsourceibias.t104 gnd.t67 gnd.t45 sky130_fd_pr__nfet_01v8 ad=1.155 pd=7.33 as=1.155 ps=7.33 w=7 l=1
X205 gnd.t219 gnd.t217 gnd.t218 gnd.t182 sky130_fd_pr__nfet_01v8 ad=2.73 pd=14.78 as=0 ps=0 w=7 l=1
X206 a_n1986_8322.t20 a_n1986_13878.t58 a_n6308_8799.t31 vdd.t192 sky130_fd_pr__pfet_01v8_lvt ad=1.485 pd=9.33 as=1.485 ps=9.33 w=9 l=0.5
X207 CSoutput.t12 commonsourceibias.t105 gnd.t66 gnd.t29 sky130_fd_pr__nfet_01v8 ad=1.155 pd=7.33 as=1.155 ps=7.33 w=7 l=1
X208 vdd.t115 a_n6308_8799.t71 CSoutput.t34 vdd.t114 sky130_fd_pr__pfet_01v8_lvt ad=1.32 pd=8.33 as=1.32 ps=8.33 w=8 l=0.5
X209 CSoutput.t106 a_n6308_8799.t72 vdd.t186 vdd.t78 sky130_fd_pr__pfet_01v8_lvt ad=1.32 pd=8.33 as=1.32 ps=8.33 w=8 l=0.5
X210 vdd.t187 a_n6308_8799.t73 CSoutput.t107 vdd.t91 sky130_fd_pr__pfet_01v8_lvt ad=1.32 pd=8.33 as=1.32 ps=8.33 w=8 l=0.5
X211 vdd.t227 a_n1986_13878.t59 a_n1986_8322.t19 vdd.t226 sky130_fd_pr__pfet_01v8_lvt ad=1.485 pd=9.33 as=3.51 ps=18.78 w=9 l=0.5
X212 plus.t1 gnd.t211 gnd.t213 gnd.t212 sky130_fd_pr__nfet_01v8 ad=0.165 pd=1.33 as=0.165 ps=1.33 w=1 l=0.5
X213 gnd.t216 gnd.t214 minus.t0 gnd.t215 sky130_fd_pr__nfet_01v8 ad=0.165 pd=1.33 as=0.165 ps=1.33 w=1 l=0.5
X214 gnd.t65 commonsourceibias.t38 commonsourceibias.t39 gnd.t34 sky130_fd_pr__nfet_01v8 ad=1.155 pd=7.33 as=1.155 ps=7.33 w=7 l=1
X215 a_n1808_13878.t3 a_n1986_13878.t60 vdd.t229 vdd.t228 sky130_fd_pr__pfet_01v8_lvt ad=3.51 pd=18.78 as=1.485 ps=9.33 w=9 l=0.5
X216 gnd.t210 gnd.t207 gnd.t209 gnd.t208 sky130_fd_pr__nfet_01v8 ad=2.73 pd=14.78 as=0 ps=0 w=7 l=1
X217 CSoutput.t52 commonsourceibias.t106 gnd.t64 gnd.t39 sky130_fd_pr__nfet_01v8 ad=1.155 pd=7.33 as=1.155 ps=7.33 w=7 l=1
X218 gnd.t206 gnd.t203 gnd.t205 gnd.t204 sky130_fd_pr__nfet_01v8 ad=2.73 pd=14.78 as=0 ps=0 w=7 l=1
X219 a_n2903_n3924.t42 diffpairibias.t21 gnd.t162 gnd.t161 sky130_fd_pr__nfet_01v8 ad=2.73 pd=14.78 as=2.73 ps=14.78 w=7 l=1
X220 vdd.t110 a_n6308_8799.t74 CSoutput.t31 vdd.t109 sky130_fd_pr__pfet_01v8_lvt ad=1.32 pd=8.33 as=1.32 ps=8.33 w=8 l=0.5
X221 vdd.t24 vdd.t22 vdd.t23 vdd.t12 sky130_fd_pr__pfet_01v8_lvt ad=3.12 pd=16.78 as=0 ps=0 w=8 l=0.5
X222 CSoutput.t32 a_n6308_8799.t75 vdd.t111 vdd.t93 sky130_fd_pr__pfet_01v8_lvt ad=1.32 pd=8.33 as=1.32 ps=8.33 w=8 l=0.5
X223 output.t10 CSoutput.t149 vdd.t203 gnd.t296 sky130_fd_pr__nfet_01v8_lvt ad=0.825 pd=5.33 as=0.825 ps=5.33 w=5 l=1
X224 CSoutput.t48 commonsourceibias.t107 gnd.t63 gnd.t12 sky130_fd_pr__nfet_01v8 ad=1.155 pd=7.33 as=1.155 ps=7.33 w=7 l=1
X225 CSoutput.t82 a_n6308_8799.t76 vdd.t170 vdd.t126 sky130_fd_pr__pfet_01v8_lvt ad=1.32 pd=8.33 as=1.32 ps=8.33 w=8 l=0.5
X226 gnd.t62 commonsourceibias.t108 CSoutput.t131 gnd.t61 sky130_fd_pr__nfet_01v8 ad=2.73 pd=14.78 as=1.155 ps=7.33 w=7 l=1
X227 vdd.t21 vdd.t19 vdd.t20 vdd.t8 sky130_fd_pr__pfet_01v8_lvt ad=3.12 pd=16.78 as=0 ps=0 w=8 l=0.5
X228 CSoutput.t126 commonsourceibias.t109 gnd.t60 gnd.t37 sky130_fd_pr__nfet_01v8 ad=1.155 pd=7.33 as=1.155 ps=7.33 w=7 l=1
X229 gnd.t202 gnd.t199 gnd.t201 gnd.t200 sky130_fd_pr__nfet_01v8 ad=2.34 pd=12.78 as=0 ps=0 w=6 l=2
X230 gnd.t59 commonsourceibias.t6 commonsourceibias.t7 gnd.t58 sky130_fd_pr__nfet_01v8 ad=1.155 pd=7.33 as=1.155 ps=7.33 w=7 l=1
X231 a_n1986_8322.t17 a_n1986_13878.t61 a_n6308_8799.t30 vdd.t135 sky130_fd_pr__pfet_01v8_lvt ad=1.485 pd=9.33 as=1.485 ps=9.33 w=9 l=0.5
X232 vdd.t225 a_n1986_13878.t62 a_n1986_8322.t18 vdd.t224 sky130_fd_pr__pfet_01v8_lvt ad=1.485 pd=9.33 as=1.485 ps=9.33 w=9 l=0.5
X233 vdd.t171 a_n6308_8799.t77 CSoutput.t83 vdd.t147 sky130_fd_pr__pfet_01v8_lvt ad=1.32 pd=8.33 as=1.32 ps=8.33 w=8 l=0.5
X234 CSoutput.t104 a_n6308_8799.t78 vdd.t184 vdd.t93 sky130_fd_pr__pfet_01v8_lvt ad=1.32 pd=8.33 as=1.32 ps=8.33 w=8 l=0.5
X235 gnd.t57 commonsourceibias.t110 CSoutput.t3 gnd.t34 sky130_fd_pr__nfet_01v8 ad=1.155 pd=7.33 as=1.155 ps=7.33 w=7 l=1
X236 CSoutput.t105 a_n6308_8799.t79 vdd.t185 vdd.t81 sky130_fd_pr__pfet_01v8_lvt ad=1.32 pd=8.33 as=3.12 ps=16.78 w=8 l=0.5
X237 a_n2903_n3924.t8 plus.t16 a_n6308_8799.t3 gnd.t137 sky130_fd_pr__nfet_01v8 ad=1.155 pd=7.33 as=1.155 ps=7.33 w=7 l=0.5
X238 vdd.t204 CSoutput.t150 output.t9 gnd.t295 sky130_fd_pr__nfet_01v8_lvt ad=0.825 pd=5.33 as=0.825 ps=5.33 w=5 l=1
X239 gnd.t198 gnd.t196 gnd.t197 gnd.t175 sky130_fd_pr__nfet_01v8 ad=2.73 pd=14.78 as=0 ps=0 w=7 l=1
X240 output.t8 CSoutput.t151 vdd.t206 gnd.t294 sky130_fd_pr__nfet_01v8_lvt ad=0.825 pd=5.33 as=0.825 ps=5.33 w=5 l=1
X241 vdd.t107 a_n6308_8799.t80 CSoutput.t29 vdd.t106 sky130_fd_pr__pfet_01v8_lvt ad=1.32 pd=8.33 as=1.32 ps=8.33 w=8 l=0.5
X242 vdd.t108 a_n6308_8799.t81 CSoutput.t30 vdd.t89 sky130_fd_pr__pfet_01v8_lvt ad=1.32 pd=8.33 as=1.32 ps=8.33 w=8 l=0.5
X243 a_n2903_n3924.t25 minus.t19 a_n1986_13878.t24 gnd.t136 sky130_fd_pr__nfet_01v8 ad=1.155 pd=7.33 as=1.155 ps=7.33 w=7 l=0.5
X244 a_n6308_8799.t5 plus.t17 a_n2903_n3924.t7 gnd.t149 sky130_fd_pr__nfet_01v8 ad=1.155 pd=7.33 as=1.155 ps=7.33 w=7 l=0.5
X245 outputibias.t7 outputibias.t6 gnd.t279 gnd.t278 sky130_fd_pr__nfet_01v8 ad=2.34 pd=12.78 as=2.34 ps=12.78 w=6 l=2
X246 gnd.t195 gnd.t193 gnd.t194 gnd.t175 sky130_fd_pr__nfet_01v8 ad=2.73 pd=14.78 as=0 ps=0 w=7 l=1
X247 CSoutput.t101 commonsourceibias.t111 gnd.t56 gnd.t55 sky130_fd_pr__nfet_01v8 ad=1.155 pd=7.33 as=1.155 ps=7.33 w=7 l=1