* NGSPICE file created from opamp.ext - technology: sky130A

.subckt opamp output vdd plus minus commonsourceibias outputibias diffpairibias gnd CSoutput
Cload output gnd 0.0p
X0 CSoutput.t137 commonsourceibias.t64 gnd.t350 gnd.t281 sky130_fd_pr__nfet_01v8 ad=1.155 pd=7.33 as=1.155 ps=7.33 w=7 l=1
X1 CSoutput.t144 a_n1986_8322.t6 sky130_fd_pr__cap_mim_m3_1 l=12 w=12
X2 vdd.t69 a_n5644_8799.t32 CSoutput.t33 vdd.t16 sky130_fd_pr__pfet_01v8_lvt ad=1.32 pd=8.33 as=1.32 ps=8.33 w=8 l=0.5
X3 a_n1986_8322.t20 a_n1986_13878.t44 vdd.t195 vdd.t194 sky130_fd_pr__pfet_01v8_lvt ad=1.485 pd=9.33 as=1.485 ps=9.33 w=9 l=0.5
X4 a_n1808_13878.t11 a_n1986_13878.t15 a_n1986_13878.t16 vdd.t154 sky130_fd_pr__pfet_01v8_lvt ad=1.485 pd=9.33 as=3.51 ps=18.78 w=9 l=0.5
X5 CSoutput.t136 commonsourceibias.t65 gnd.t349 gnd.t197 sky130_fd_pr__nfet_01v8 ad=1.155 pd=7.33 as=1.155 ps=7.33 w=7 l=1
X6 CSoutput.t135 commonsourceibias.t66 gnd.t348 gnd.t246 sky130_fd_pr__nfet_01v8 ad=1.155 pd=7.33 as=1.155 ps=7.33 w=7 l=1
X7 gnd.t347 commonsourceibias.t67 CSoutput.t134 gnd.t272 sky130_fd_pr__nfet_01v8 ad=1.155 pd=7.33 as=1.155 ps=7.33 w=7 l=1
X8 a_n1986_13878.t26 a_n1986_13878.t25 a_n1808_13878.t10 vdd.t70 sky130_fd_pr__pfet_01v8_lvt ad=1.485 pd=9.33 as=1.485 ps=9.33 w=9 l=0.5
X9 a_n1808_13878.t9 a_n1986_13878.t17 a_n1986_13878.t18 vdd.t1 sky130_fd_pr__pfet_01v8_lvt ad=1.485 pd=9.33 as=1.485 ps=9.33 w=9 l=0.5
X10 vdd.t149 vdd.t147 vdd.t148 vdd.t122 sky130_fd_pr__pfet_01v8_lvt ad=3.51 pd=18.78 as=0 ps=0 w=9 l=0.5
X11 a_n1808_13878.t19 a_n1986_13878.t45 vdd.t3 vdd.t2 sky130_fd_pr__pfet_01v8_lvt ad=1.485 pd=9.33 as=1.485 ps=9.33 w=9 l=0.5
X12 CSoutput.t22 a_n5644_8799.t33 vdd.t68 vdd.t12 sky130_fd_pr__pfet_01v8_lvt ad=1.32 pd=8.33 as=1.32 ps=8.33 w=8 l=0.5
X13 vdd.t146 vdd.t144 vdd.t145 vdd.t97 sky130_fd_pr__pfet_01v8_lvt ad=3.12 pd=16.78 as=0 ps=0 w=8 l=0.5
X14 minus.t4 gnd.t168 gnd.t170 gnd.t169 sky130_fd_pr__nfet_01v8 ad=0.165 pd=1.33 as=0.165 ps=1.33 w=1 l=0.5
X15 gnd.t167 gnd.t165 plus.t4 gnd.t166 sky130_fd_pr__nfet_01v8 ad=0.39 pd=2.78 as=0.165 ps=1.33 w=1 l=0.5
X16 gnd.t346 commonsourceibias.t68 CSoutput.t133 gnd.t225 sky130_fd_pr__nfet_01v8 ad=2.73 pd=14.78 as=1.155 ps=7.33 w=7 l=1
X17 a_n5644_8799.t28 plus.t5 a_n2903_n3924.t42 gnd.t173 sky130_fd_pr__nfet_01v8 ad=1.155 pd=7.33 as=1.155 ps=7.33 w=7 l=0.5
X18 CSoutput.t132 commonsourceibias.t69 gnd.t345 gnd.t270 sky130_fd_pr__nfet_01v8 ad=1.155 pd=7.33 as=1.155 ps=7.33 w=7 l=1
X19 CSoutput.t131 commonsourceibias.t70 gnd.t341 gnd.t270 sky130_fd_pr__nfet_01v8 ad=1.155 pd=7.33 as=1.155 ps=7.33 w=7 l=1
X20 CSoutput.t130 commonsourceibias.t71 gnd.t344 gnd.t193 sky130_fd_pr__nfet_01v8 ad=1.155 pd=7.33 as=1.155 ps=7.33 w=7 l=1
X21 gnd.t342 commonsourceibias.t72 CSoutput.t129 gnd.t210 sky130_fd_pr__nfet_01v8 ad=1.155 pd=7.33 as=1.155 ps=7.33 w=7 l=1
X22 gnd.t343 commonsourceibias.t73 CSoutput.t128 gnd.t251 sky130_fd_pr__nfet_01v8 ad=2.73 pd=14.78 as=1.155 ps=7.33 w=7 l=1
X23 vdd.t175 CSoutput.t145 output.t18 gnd.t12 sky130_fd_pr__nfet_01v8_lvt ad=0.825 pd=5.33 as=0.825 ps=5.33 w=5 l=1
X24 commonsourceibias.t49 commonsourceibias.t48 gnd.t340 gnd.t193 sky130_fd_pr__nfet_01v8 ad=1.155 pd=7.33 as=1.155 ps=7.33 w=7 l=1
X25 CSoutput.t127 commonsourceibias.t74 gnd.t339 gnd.t285 sky130_fd_pr__nfet_01v8 ad=1.155 pd=7.33 as=1.155 ps=7.33 w=7 l=1
X26 a_n1986_8322.t11 a_n1986_13878.t46 a_n5644_8799.t5 vdd.t186 sky130_fd_pr__pfet_01v8_lvt ad=1.485 pd=9.33 as=1.485 ps=9.33 w=9 l=0.5
X27 CSoutput.t126 commonsourceibias.t75 gnd.t338 gnd.t197 sky130_fd_pr__nfet_01v8 ad=1.155 pd=7.33 as=1.155 ps=7.33 w=7 l=1
X28 gnd.t164 gnd.t161 gnd.t163 gnd.t162 sky130_fd_pr__nfet_01v8_lvt ad=1.95 pd=10.78 as=0 ps=0 w=5 l=1
X29 CSoutput.t146 a_n1986_8322.t6 sky130_fd_pr__cap_mim_m3_1 l=12 w=12
X30 CSoutput.t125 commonsourceibias.t76 gnd.t337 gnd.t243 sky130_fd_pr__nfet_01v8 ad=1.155 pd=7.33 as=1.155 ps=7.33 w=7 l=1
X31 gnd.t336 commonsourceibias.t77 CSoutput.t124 gnd.t262 sky130_fd_pr__nfet_01v8 ad=1.155 pd=7.33 as=1.155 ps=7.33 w=7 l=1
X32 CSoutput.t123 commonsourceibias.t78 gnd.t335 gnd.t232 sky130_fd_pr__nfet_01v8 ad=1.155 pd=7.33 as=1.155 ps=7.33 w=7 l=1
X33 CSoutput.t122 commonsourceibias.t79 gnd.t334 gnd.t281 sky130_fd_pr__nfet_01v8 ad=1.155 pd=7.33 as=1.155 ps=7.33 w=7 l=1
X34 a_n5644_8799.t27 plus.t6 a_n2903_n3924.t41 gnd.t188 sky130_fd_pr__nfet_01v8 ad=1.155 pd=7.33 as=1.155 ps=7.33 w=7 l=0.5
X35 gnd.t160 gnd.t158 gnd.t159 gnd.t84 sky130_fd_pr__nfet_01v8 ad=2.73 pd=14.78 as=0 ps=0 w=7 l=1
X36 gnd.t157 gnd.t155 gnd.t156 gnd.t76 sky130_fd_pr__nfet_01v8 ad=2.73 pd=14.78 as=0 ps=0 w=7 l=1
X37 CSoutput.t29 a_n5644_8799.t34 vdd.t67 vdd.t25 sky130_fd_pr__pfet_01v8_lvt ad=1.32 pd=8.33 as=3.12 ps=16.78 w=8 l=0.5
X38 vdd.t66 a_n5644_8799.t35 CSoutput.t11 vdd.t43 sky130_fd_pr__pfet_01v8_lvt ad=3.12 pd=16.78 as=1.32 ps=8.33 w=8 l=0.5
X39 CSoutput.t121 commonsourceibias.t80 gnd.t333 gnd.t257 sky130_fd_pr__nfet_01v8 ad=1.155 pd=7.33 as=1.155 ps=7.33 w=7 l=1
X40 a_n5644_8799.t26 a_n1986_13878.t47 a_n1986_8322.t15 vdd.t154 sky130_fd_pr__pfet_01v8_lvt ad=1.485 pd=9.33 as=3.51 ps=18.78 w=9 l=0.5
X41 CSoutput.t41 a_n5644_8799.t36 vdd.t65 vdd.t6 sky130_fd_pr__pfet_01v8_lvt ad=1.32 pd=8.33 as=3.12 ps=16.78 w=8 l=0.5
X42 vdd.t64 a_n5644_8799.t37 CSoutput.t12 vdd.t59 sky130_fd_pr__pfet_01v8_lvt ad=1.32 pd=8.33 as=1.32 ps=8.33 w=8 l=0.5
X43 a_n2903_n3924.t22 minus.t5 a_n1986_13878.t37 gnd.t187 sky130_fd_pr__nfet_01v8 ad=1.155 pd=7.33 as=1.155 ps=7.33 w=7 l=0.5
X44 gnd.t332 commonsourceibias.t81 CSoutput.t120 gnd.t195 sky130_fd_pr__nfet_01v8 ad=1.155 pd=7.33 as=1.155 ps=7.33 w=7 l=1
X45 a_n2903_n3924.t46 diffpairibias.t16 gnd.t356 gnd.t355 sky130_fd_pr__nfet_01v8 ad=2.73 pd=14.78 as=2.73 ps=14.78 w=7 l=1
X46 a_n1986_13878.t31 minus.t6 a_n2903_n3924.t21 gnd.t50 sky130_fd_pr__nfet_01v8 ad=1.155 pd=7.33 as=1.155 ps=7.33 w=7 l=0.5
X47 a_n2903_n3924.t40 plus.t7 a_n5644_8799.t24 gnd.t11 sky130_fd_pr__nfet_01v8 ad=1.155 pd=7.33 as=1.155 ps=7.33 w=7 l=0.5
X48 CSoutput.t119 commonsourceibias.t82 gnd.t331 gnd.t218 sky130_fd_pr__nfet_01v8 ad=1.155 pd=7.33 as=2.73 ps=14.78 w=7 l=1
X49 gnd.t330 commonsourceibias.t46 commonsourceibias.t47 gnd.t229 sky130_fd_pr__nfet_01v8 ad=1.155 pd=7.33 as=1.155 ps=7.33 w=7 l=1
X50 a_n2903_n3924.t39 plus.t8 a_n5644_8799.t13 gnd.t175 sky130_fd_pr__nfet_01v8 ad=1.155 pd=7.33 as=1.155 ps=7.33 w=7 l=0.5
X51 a_n2903_n3924.t20 minus.t7 a_n1986_13878.t41 gnd.t186 sky130_fd_pr__nfet_01v8 ad=1.155 pd=7.33 as=1.155 ps=7.33 w=7 l=0.5
X52 output.t19 outputibias.t8 gnd.t181 gnd.t180 sky130_fd_pr__nfet_01v8 ad=2.34 pd=12.78 as=2.34 ps=12.78 w=6 l=2
X53 CSoutput.t118 commonsourceibias.t83 gnd.t329 gnd.t257 sky130_fd_pr__nfet_01v8 ad=1.155 pd=7.33 as=1.155 ps=7.33 w=7 l=1
X54 CSoutput.t24 a_n5644_8799.t38 vdd.t63 vdd.t21 sky130_fd_pr__pfet_01v8_lvt ad=1.32 pd=8.33 as=1.32 ps=8.33 w=8 l=0.5
X55 vdd.t143 vdd.t141 vdd.t142 vdd.t75 sky130_fd_pr__pfet_01v8_lvt ad=3.12 pd=16.78 as=0 ps=0 w=8 l=0.5
X56 gnd.t328 commonsourceibias.t84 CSoutput.t117 gnd.t276 sky130_fd_pr__nfet_01v8 ad=1.155 pd=7.33 as=1.155 ps=7.33 w=7 l=1
X57 CSoutput.t116 commonsourceibias.t85 gnd.t327 gnd.t240 sky130_fd_pr__nfet_01v8 ad=1.155 pd=7.33 as=1.155 ps=7.33 w=7 l=1
X58 CSoutput.t115 commonsourceibias.t86 gnd.t326 gnd.t206 sky130_fd_pr__nfet_01v8 ad=1.155 pd=7.33 as=1.155 ps=7.33 w=7 l=1
X59 gnd.t325 commonsourceibias.t87 CSoutput.t114 gnd.t276 sky130_fd_pr__nfet_01v8 ad=1.155 pd=7.33 as=1.155 ps=7.33 w=7 l=1
X60 output.t17 CSoutput.t147 vdd.t174 gnd.t171 sky130_fd_pr__nfet_01v8_lvt ad=0.825 pd=5.33 as=0.825 ps=5.33 w=5 l=1
X61 gnd.t315 commonsourceibias.t88 CSoutput.t113 gnd.t272 sky130_fd_pr__nfet_01v8 ad=1.155 pd=7.33 as=1.155 ps=7.33 w=7 l=1
X62 CSoutput.t112 commonsourceibias.t89 gnd.t324 gnd.t240 sky130_fd_pr__nfet_01v8 ad=1.155 pd=7.33 as=1.155 ps=7.33 w=7 l=1
X63 a_n2903_n3924.t19 minus.t8 a_n1986_13878.t43 gnd.t185 sky130_fd_pr__nfet_01v8 ad=1.155 pd=7.33 as=1.155 ps=7.33 w=7 l=0.5
X64 gnd.t154 gnd.t152 gnd.t153 gnd.t84 sky130_fd_pr__nfet_01v8 ad=2.73 pd=14.78 as=0 ps=0 w=7 l=1
X65 CSoutput.t111 commonsourceibias.t90 gnd.t316 gnd.t270 sky130_fd_pr__nfet_01v8 ad=1.155 pd=7.33 as=1.155 ps=7.33 w=7 l=1
X66 gnd.t323 commonsourceibias.t44 commonsourceibias.t45 gnd.t201 sky130_fd_pr__nfet_01v8 ad=1.155 pd=7.33 as=1.155 ps=7.33 w=7 l=1
X67 a_n1808_13878.t8 a_n1986_13878.t19 a_n1986_13878.t20 vdd.t153 sky130_fd_pr__pfet_01v8_lvt ad=1.485 pd=9.33 as=3.51 ps=18.78 w=9 l=0.5
X68 vdd.t62 a_n5644_8799.t39 CSoutput.t138 vdd.t59 sky130_fd_pr__pfet_01v8_lvt ad=1.32 pd=8.33 as=1.32 ps=8.33 w=8 l=0.5
X69 diffpairibias.t15 diffpairibias.t14 gnd.t26 gnd.t25 sky130_fd_pr__nfet_01v8 ad=2.73 pd=14.78 as=2.73 ps=14.78 w=7 l=1
X70 a_n1986_13878.t4 a_n1986_13878.t3 a_n1808_13878.t7 vdd.t73 sky130_fd_pr__pfet_01v8_lvt ad=1.485 pd=9.33 as=1.485 ps=9.33 w=9 l=0.5
X71 CSoutput.t23 a_n5644_8799.t40 vdd.t61 vdd.t37 sky130_fd_pr__pfet_01v8_lvt ad=1.32 pd=8.33 as=1.32 ps=8.33 w=8 l=0.5
X72 gnd.t322 commonsourceibias.t91 CSoutput.t110 gnd.t212 sky130_fd_pr__nfet_01v8 ad=1.155 pd=7.33 as=1.155 ps=7.33 w=7 l=1
X73 CSoutput.t109 commonsourceibias.t92 gnd.t321 gnd.t254 sky130_fd_pr__nfet_01v8 ad=1.155 pd=7.33 as=1.155 ps=7.33 w=7 l=1
X74 CSoutput.t108 commonsourceibias.t93 gnd.t320 gnd.t218 sky130_fd_pr__nfet_01v8 ad=1.155 pd=7.33 as=2.73 ps=14.78 w=7 l=1
X75 vdd.t140 vdd.t138 vdd.t139 vdd.t107 sky130_fd_pr__pfet_01v8_lvt ad=3.51 pd=18.78 as=0 ps=0 w=9 l=0.5
X76 gnd.t151 gnd.t150 plus.t3 gnd.t80 sky130_fd_pr__nfet_01v8 ad=0.165 pd=1.33 as=0.165 ps=1.33 w=1 l=0.5
X77 gnd.t319 commonsourceibias.t94 CSoutput.t107 gnd.t235 sky130_fd_pr__nfet_01v8 ad=1.155 pd=7.33 as=1.155 ps=7.33 w=7 l=1
X78 gnd.t149 gnd.t147 gnd.t148 gnd.t80 sky130_fd_pr__nfet_01v8 ad=2.73 pd=14.78 as=0 ps=0 w=7 l=0.5
X79 gnd.t318 commonsourceibias.t95 CSoutput.t106 gnd.t208 sky130_fd_pr__nfet_01v8 ad=1.155 pd=7.33 as=1.155 ps=7.33 w=7 l=1
X80 minus.t3 gnd.t144 gnd.t146 gnd.t145 sky130_fd_pr__nfet_01v8 ad=0.165 pd=1.33 as=0.165 ps=1.33 w=1 l=0.5
X81 CSoutput.t105 commonsourceibias.t96 gnd.t317 gnd.t254 sky130_fd_pr__nfet_01v8 ad=1.155 pd=7.33 as=1.155 ps=7.33 w=7 l=1
X82 diffpairibias.t13 diffpairibias.t12 gnd.t39 gnd.t38 sky130_fd_pr__nfet_01v8 ad=2.73 pd=14.78 as=2.73 ps=14.78 w=7 l=1
X83 gnd.t314 commonsourceibias.t52 commonsourceibias.t53 gnd.t237 sky130_fd_pr__nfet_01v8 ad=1.155 pd=7.33 as=1.155 ps=7.33 w=7 l=1
X84 vdd.t137 vdd.t135 vdd.t136 vdd.t86 sky130_fd_pr__pfet_01v8_lvt ad=3.12 pd=16.78 as=0 ps=0 w=8 l=0.5
X85 CSoutput.t104 commonsourceibias.t97 gnd.t313 gnd.t223 sky130_fd_pr__nfet_01v8 ad=1.155 pd=7.33 as=1.155 ps=7.33 w=7 l=1
X86 CSoutput.t103 commonsourceibias.t98 gnd.t312 gnd.t285 sky130_fd_pr__nfet_01v8 ad=1.155 pd=7.33 as=1.155 ps=7.33 w=7 l=1
X87 gnd.t143 gnd.t141 gnd.t142 gnd.t72 sky130_fd_pr__nfet_01v8 ad=2.73 pd=14.78 as=0 ps=0 w=7 l=1
X88 gnd.t311 commonsourceibias.t99 CSoutput.t102 gnd.t251 sky130_fd_pr__nfet_01v8 ad=2.73 pd=14.78 as=1.155 ps=7.33 w=7 l=1
X89 CSoutput.t101 commonsourceibias.t100 gnd.t310 gnd.t206 sky130_fd_pr__nfet_01v8 ad=1.155 pd=7.33 as=1.155 ps=7.33 w=7 l=1
X90 gnd.t309 commonsourceibias.t101 CSoutput.t100 gnd.t237 sky130_fd_pr__nfet_01v8 ad=1.155 pd=7.33 as=1.155 ps=7.33 w=7 l=1
X91 vdd.t60 a_n5644_8799.t41 CSoutput.t17 vdd.t59 sky130_fd_pr__pfet_01v8_lvt ad=1.32 pd=8.33 as=1.32 ps=8.33 w=8 l=0.5
X92 gnd.t308 commonsourceibias.t102 CSoutput.t99 gnd.t262 sky130_fd_pr__nfet_01v8 ad=1.155 pd=7.33 as=1.155 ps=7.33 w=7 l=1
X93 output.t16 CSoutput.t148 vdd.t168 gnd.t172 sky130_fd_pr__nfet_01v8_lvt ad=0.825 pd=5.33 as=0.825 ps=5.33 w=5 l=1
X94 vdd.t58 a_n5644_8799.t42 CSoutput.t4 vdd.t34 sky130_fd_pr__pfet_01v8_lvt ad=1.32 pd=8.33 as=1.32 ps=8.33 w=8 l=0.5
X95 CSoutput.t38 a_n5644_8799.t43 vdd.t57 vdd.t6 sky130_fd_pr__pfet_01v8_lvt ad=1.32 pd=8.33 as=3.12 ps=16.78 w=8 l=0.5
X96 CSoutput.t149 a_n1986_8322.t6 sky130_fd_pr__cap_mim_m3_1 l=12 w=12
X97 gnd.t307 commonsourceibias.t50 commonsourceibias.t51 gnd.t220 sky130_fd_pr__nfet_01v8 ad=1.155 pd=7.33 as=1.155 ps=7.33 w=7 l=1
X98 vdd.t56 a_n5644_8799.t44 CSoutput.t142 vdd.t10 sky130_fd_pr__pfet_01v8_lvt ad=1.32 pd=8.33 as=1.32 ps=8.33 w=8 l=0.5
X99 a_n5644_8799.t20 plus.t9 a_n2903_n3924.t38 gnd.t22 sky130_fd_pr__nfet_01v8 ad=1.155 pd=7.33 as=1.155 ps=7.33 w=7 l=0.5
X100 gnd.t306 commonsourceibias.t103 CSoutput.t98 gnd.t237 sky130_fd_pr__nfet_01v8 ad=1.155 pd=7.33 as=1.155 ps=7.33 w=7 l=1
X101 CSoutput.t140 a_n5644_8799.t45 vdd.t55 vdd.t21 sky130_fd_pr__pfet_01v8_lvt ad=1.32 pd=8.33 as=1.32 ps=8.33 w=8 l=0.5
X102 CSoutput.t27 a_n5644_8799.t46 vdd.t54 vdd.t47 sky130_fd_pr__pfet_01v8_lvt ad=1.32 pd=8.33 as=1.32 ps=8.33 w=8 l=0.5
X103 vdd.t165 CSoutput.t150 output.t15 gnd.t13 sky130_fd_pr__nfet_01v8_lvt ad=0.825 pd=5.33 as=0.825 ps=5.33 w=5 l=1
X104 output.t14 CSoutput.t151 vdd.t164 gnd.t14 sky130_fd_pr__nfet_01v8_lvt ad=0.825 pd=5.33 as=0.825 ps=5.33 w=5 l=1
X105 a_n2903_n3924.t43 diffpairibias.t17 gnd.t48 gnd.t47 sky130_fd_pr__nfet_01v8 ad=2.73 pd=14.78 as=2.73 ps=14.78 w=7 l=1
X106 CSoutput.t9 a_n5644_8799.t47 vdd.t53 vdd.t47 sky130_fd_pr__pfet_01v8_lvt ad=1.32 pd=8.33 as=1.32 ps=8.33 w=8 l=0.5
X107 a_n2903_n3924.t18 minus.t9 a_n1986_13878.t30 gnd.t49 sky130_fd_pr__nfet_01v8 ad=1.155 pd=7.33 as=1.155 ps=7.33 w=7 l=0.5
X108 gnd.t305 commonsourceibias.t104 CSoutput.t97 gnd.t195 sky130_fd_pr__nfet_01v8 ad=1.155 pd=7.33 as=1.155 ps=7.33 w=7 l=1
X109 gnd.t140 gnd.t138 gnd.t139 gnd.t68 sky130_fd_pr__nfet_01v8 ad=2.73 pd=14.78 as=0 ps=0 w=7 l=1
X110 vdd.t52 a_n5644_8799.t48 CSoutput.t15 vdd.t45 sky130_fd_pr__pfet_01v8_lvt ad=1.32 pd=8.33 as=1.32 ps=8.33 w=8 l=0.5
X111 gnd.t137 gnd.t135 gnd.t136 gnd.t68 sky130_fd_pr__nfet_01v8 ad=2.73 pd=14.78 as=0 ps=0 w=7 l=1
X112 a_n2903_n3924.t37 plus.t10 a_n5644_8799.t6 gnd.t176 sky130_fd_pr__nfet_01v8 ad=1.155 pd=7.33 as=1.155 ps=7.33 w=7 l=0.5
X113 a_n1986_13878.t38 minus.t10 a_n2903_n3924.t17 gnd.t182 sky130_fd_pr__nfet_01v8 ad=1.155 pd=7.33 as=1.155 ps=7.33 w=7 l=0.5
X114 CSoutput.t96 commonsourceibias.t105 gnd.t304 gnd.t243 sky130_fd_pr__nfet_01v8 ad=1.155 pd=7.33 as=1.155 ps=7.33 w=7 l=1
X115 a_n1986_13878.t14 a_n1986_13878.t13 a_n1808_13878.t6 vdd.t186 sky130_fd_pr__pfet_01v8_lvt ad=1.485 pd=9.33 as=1.485 ps=9.33 w=9 l=0.5
X116 a_n1986_13878.t24 a_n1986_13878.t23 a_n1808_13878.t5 vdd.t156 sky130_fd_pr__pfet_01v8_lvt ad=3.51 pd=18.78 as=1.485 ps=9.33 w=9 l=0.5
X117 vdd.t51 a_n5644_8799.t49 CSoutput.t20 vdd.t43 sky130_fd_pr__pfet_01v8_lvt ad=3.12 pd=16.78 as=1.32 ps=8.33 w=8 l=0.5
X118 a_n5644_8799.t3 a_n1986_13878.t48 a_n1986_8322.t4 vdd.t157 sky130_fd_pr__pfet_01v8_lvt ad=1.485 pd=9.33 as=1.485 ps=9.33 w=9 l=0.5
X119 gnd.t303 commonsourceibias.t106 CSoutput.t95 gnd.t199 sky130_fd_pr__nfet_01v8 ad=1.155 pd=7.33 as=1.155 ps=7.33 w=7 l=1
X120 vdd.t50 a_n5644_8799.t50 CSoutput.t141 vdd.t45 sky130_fd_pr__pfet_01v8_lvt ad=1.32 pd=8.33 as=1.32 ps=8.33 w=8 l=0.5
X121 a_n2903_n3924.t16 minus.t11 a_n1986_13878.t0 gnd.t5 sky130_fd_pr__nfet_01v8 ad=2.73 pd=14.78 as=1.155 ps=7.33 w=7 l=0.5
X122 gnd.t298 commonsourceibias.t107 CSoutput.t94 gnd.t229 sky130_fd_pr__nfet_01v8 ad=1.155 pd=7.33 as=1.155 ps=7.33 w=7 l=1
X123 gnd.t302 commonsourceibias.t56 commonsourceibias.t57 gnd.t210 sky130_fd_pr__nfet_01v8 ad=1.155 pd=7.33 as=1.155 ps=7.33 w=7 l=1
X124 output.t2 outputibias.t9 gnd.t43 gnd.t42 sky130_fd_pr__nfet_01v8 ad=2.34 pd=12.78 as=2.34 ps=12.78 w=6 l=2
X125 vdd.t134 vdd.t132 vdd.t133 vdd.t86 sky130_fd_pr__pfet_01v8_lvt ad=3.12 pd=16.78 as=0 ps=0 w=8 l=0.5
X126 output.t13 CSoutput.t152 vdd.t166 gnd.t23 sky130_fd_pr__nfet_01v8_lvt ad=0.825 pd=5.33 as=0.825 ps=5.33 w=5 l=1
X127 CSoutput.t153 a_n1986_8322.t6 sky130_fd_pr__cap_mim_m3_1 l=12 w=12
X128 vdd.t49 a_n5644_8799.t51 CSoutput.t26 vdd.t34 sky130_fd_pr__pfet_01v8_lvt ad=1.32 pd=8.33 as=1.32 ps=8.33 w=8 l=0.5
X129 vdd.t131 vdd.t129 vdd.t130 vdd.t115 sky130_fd_pr__pfet_01v8_lvt ad=3.51 pd=18.78 as=0 ps=0 w=9 l=0.5
X130 vdd.t128 vdd.t125 vdd.t127 vdd.t126 sky130_fd_pr__pfet_01v8_lvt ad=3.51 pd=18.78 as=0 ps=0 w=9 l=0.5
X131 CSoutput.t93 commonsourceibias.t108 gnd.t301 gnd.t191 sky130_fd_pr__nfet_01v8 ad=1.155 pd=7.33 as=2.73 ps=14.78 w=7 l=1
X132 gnd.t300 commonsourceibias.t109 CSoutput.t92 gnd.t220 sky130_fd_pr__nfet_01v8 ad=1.155 pd=7.33 as=1.155 ps=7.33 w=7 l=1
X133 a_n1986_13878.t32 minus.t12 a_n2903_n3924.t15 gnd.t51 sky130_fd_pr__nfet_01v8 ad=1.155 pd=7.33 as=1.155 ps=7.33 w=7 l=0.5
X134 CSoutput.t91 commonsourceibias.t110 gnd.t299 gnd.t285 sky130_fd_pr__nfet_01v8 ad=1.155 pd=7.33 as=1.155 ps=7.33 w=7 l=1
X135 gnd.t297 commonsourceibias.t111 CSoutput.t90 gnd.t276 sky130_fd_pr__nfet_01v8 ad=1.155 pd=7.33 as=1.155 ps=7.33 w=7 l=1
X136 gnd.t128 gnd.t125 gnd.t127 gnd.t126 sky130_fd_pr__nfet_01v8_lvt ad=1.95 pd=10.78 as=0 ps=0 w=5 l=1
X137 a_n2903_n3924.t45 diffpairibias.t18 gnd.t352 gnd.t351 sky130_fd_pr__nfet_01v8 ad=2.73 pd=14.78 as=2.73 ps=14.78 w=7 l=1
X138 gnd.t296 commonsourceibias.t112 CSoutput.t89 gnd.t251 sky130_fd_pr__nfet_01v8 ad=2.73 pd=14.78 as=1.155 ps=7.33 w=7 l=1
X139 gnd.t295 commonsourceibias.t54 commonsourceibias.t55 gnd.t212 sky130_fd_pr__nfet_01v8 ad=1.155 pd=7.33 as=1.155 ps=7.33 w=7 l=1
X140 vdd.t124 vdd.t121 vdd.t123 vdd.t122 sky130_fd_pr__pfet_01v8_lvt ad=3.51 pd=18.78 as=0 ps=0 w=9 l=0.5
X141 CSoutput.t88 commonsourceibias.t113 gnd.t294 gnd.t281 sky130_fd_pr__nfet_01v8 ad=1.155 pd=7.33 as=1.155 ps=7.33 w=7 l=1
X142 output.t12 CSoutput.t154 vdd.t167 gnd.t24 sky130_fd_pr__nfet_01v8_lvt ad=0.825 pd=5.33 as=0.825 ps=5.33 w=5 l=1
X143 CSoutput.t155 a_n1986_8322.t6 sky130_fd_pr__cap_mim_m3_1 l=12 w=12
X144 vdd.t163 a_n1986_13878.t49 a_n1986_8322.t5 vdd.t162 sky130_fd_pr__pfet_01v8_lvt ad=1.485 pd=9.33 as=1.485 ps=9.33 w=9 l=0.5
X145 vdd.t120 vdd.t118 vdd.t119 vdd.t111 sky130_fd_pr__pfet_01v8_lvt ad=3.51 pd=18.78 as=0 ps=0 w=9 l=0.5
X146 a_n2903_n3924.t36 plus.t11 a_n5644_8799.t23 gnd.t46 sky130_fd_pr__nfet_01v8 ad=1.155 pd=7.33 as=1.155 ps=7.33 w=7 l=0.5
X147 CSoutput.t18 a_n5644_8799.t52 vdd.t48 vdd.t47 sky130_fd_pr__pfet_01v8_lvt ad=1.32 pd=8.33 as=1.32 ps=8.33 w=8 l=0.5
X148 a_n1986_8322.t14 a_n1986_13878.t50 vdd.t190 vdd.t189 sky130_fd_pr__pfet_01v8_lvt ad=1.485 pd=9.33 as=1.485 ps=9.33 w=9 l=0.5
X149 vdd.t46 a_n5644_8799.t53 CSoutput.t14 vdd.t45 sky130_fd_pr__pfet_01v8_lvt ad=1.32 pd=8.33 as=1.32 ps=8.33 w=8 l=0.5
X150 gnd.t134 gnd.t132 gnd.t133 gnd.t68 sky130_fd_pr__nfet_01v8 ad=2.73 pd=14.78 as=0 ps=0 w=7 l=1
X151 vdd.t151 a_n1986_13878.t51 a_n1808_13878.t18 vdd.t150 sky130_fd_pr__pfet_01v8_lvt ad=1.485 pd=9.33 as=1.485 ps=9.33 w=9 l=0.5
X152 a_n1986_13878.t42 minus.t13 a_n2903_n3924.t14 gnd.t184 sky130_fd_pr__nfet_01v8 ad=1.155 pd=7.33 as=1.155 ps=7.33 w=7 l=0.5
X153 a_n5644_8799.t22 plus.t12 a_n2903_n3924.t35 gnd.t179 sky130_fd_pr__nfet_01v8 ad=1.155 pd=7.33 as=2.73 ps=14.78 w=7 l=0.5
X154 vdd.t117 vdd.t114 vdd.t116 vdd.t115 sky130_fd_pr__pfet_01v8_lvt ad=3.51 pd=18.78 as=0 ps=0 w=9 l=0.5
X155 diffpairibias.t11 diffpairibias.t10 gnd.t360 gnd.t359 sky130_fd_pr__nfet_01v8 ad=2.73 pd=14.78 as=2.73 ps=14.78 w=7 l=1
X156 vdd.t113 vdd.t110 vdd.t112 vdd.t111 sky130_fd_pr__pfet_01v8_lvt ad=3.51 pd=18.78 as=0 ps=0 w=9 l=0.5
X157 vdd.t44 a_n5644_8799.t54 CSoutput.t25 vdd.t43 sky130_fd_pr__pfet_01v8_lvt ad=3.12 pd=16.78 as=1.32 ps=8.33 w=8 l=0.5
X158 CSoutput.t87 commonsourceibias.t114 gnd.t293 gnd.t246 sky130_fd_pr__nfet_01v8 ad=1.155 pd=7.33 as=1.155 ps=7.33 w=7 l=1
X159 gnd.t292 commonsourceibias.t115 CSoutput.t86 gnd.t272 sky130_fd_pr__nfet_01v8 ad=1.155 pd=7.33 as=1.155 ps=7.33 w=7 l=1
X160 commonsourceibias.t63 commonsourceibias.t62 gnd.t291 gnd.t197 sky130_fd_pr__nfet_01v8 ad=1.155 pd=7.33 as=1.155 ps=7.33 w=7 l=1
X161 a_n5644_8799.t0 a_n1986_13878.t52 a_n1986_8322.t0 vdd.t0 sky130_fd_pr__pfet_01v8_lvt ad=1.485 pd=9.33 as=1.485 ps=9.33 w=9 l=0.5
X162 a_n1986_8322.t10 a_n1986_13878.t53 vdd.t185 vdd.t184 sky130_fd_pr__pfet_01v8_lvt ad=3.51 pd=18.78 as=1.485 ps=9.33 w=9 l=0.5
X163 vdd.t109 vdd.t106 vdd.t108 vdd.t107 sky130_fd_pr__pfet_01v8_lvt ad=3.51 pd=18.78 as=0 ps=0 w=9 l=0.5
X164 plus.t2 gnd.t129 gnd.t131 gnd.t130 sky130_fd_pr__nfet_01v8 ad=0.165 pd=1.33 as=0.165 ps=1.33 w=1 l=0.5
X165 CSoutput.t85 commonsourceibias.t116 gnd.t290 gnd.t243 sky130_fd_pr__nfet_01v8 ad=1.155 pd=7.33 as=1.155 ps=7.33 w=7 l=1
X166 vdd.t173 CSoutput.t156 output.t11 gnd.t0 sky130_fd_pr__nfet_01v8_lvt ad=0.825 pd=5.33 as=0.825 ps=5.33 w=5 l=1
X167 a_n1986_13878.t12 a_n1986_13878.t11 a_n1808_13878.t4 vdd.t191 sky130_fd_pr__pfet_01v8_lvt ad=1.485 pd=9.33 as=1.485 ps=9.33 w=9 l=0.5
X168 a_n5644_8799.t30 a_n1986_13878.t54 a_n1986_8322.t17 vdd.t1 sky130_fd_pr__pfet_01v8_lvt ad=1.485 pd=9.33 as=1.485 ps=9.33 w=9 l=0.5
X169 gnd.t124 gnd.t122 minus.t2 gnd.t123 sky130_fd_pr__nfet_01v8 ad=0.39 pd=2.78 as=0.165 ps=1.33 w=1 l=0.5
X170 gnd.t121 gnd.t119 gnd.t120 gnd.t76 sky130_fd_pr__nfet_01v8 ad=2.73 pd=14.78 as=0 ps=0 w=7 l=1
X171 CSoutput.t84 commonsourceibias.t117 gnd.t289 gnd.t240 sky130_fd_pr__nfet_01v8 ad=1.155 pd=7.33 as=1.155 ps=7.33 w=7 l=1
X172 a_n1986_13878.t40 minus.t14 a_n2903_n3924.t13 gnd.t183 sky130_fd_pr__nfet_01v8 ad=1.155 pd=7.33 as=1.155 ps=7.33 w=7 l=0.5
X173 a_n1808_13878.t3 a_n1986_13878.t9 a_n1986_13878.t10 vdd.t157 sky130_fd_pr__pfet_01v8_lvt ad=1.485 pd=9.33 as=1.485 ps=9.33 w=9 l=0.5
X174 gnd.t288 commonsourceibias.t118 CSoutput.t83 gnd.t262 sky130_fd_pr__nfet_01v8 ad=1.155 pd=7.33 as=1.155 ps=7.33 w=7 l=1
X175 gnd.t287 commonsourceibias.t119 CSoutput.t82 gnd.t235 sky130_fd_pr__nfet_01v8 ad=1.155 pd=7.33 as=1.155 ps=7.33 w=7 l=1
X176 outputibias.t7 outputibias.t6 gnd.t35 gnd.t34 sky130_fd_pr__nfet_01v8 ad=2.34 pd=12.78 as=2.34 ps=12.78 w=6 l=2
X177 vdd.t178 CSoutput.t157 output.t10 gnd.t1 sky130_fd_pr__nfet_01v8_lvt ad=0.825 pd=5.33 as=0.825 ps=5.33 w=5 l=1
X178 commonsourceibias.t61 commonsourceibias.t60 gnd.t286 gnd.t285 sky130_fd_pr__nfet_01v8 ad=1.155 pd=7.33 as=1.155 ps=7.33 w=7 l=1
X179 gnd.t284 commonsourceibias.t120 CSoutput.t81 gnd.t225 sky130_fd_pr__nfet_01v8 ad=2.73 pd=14.78 as=1.155 ps=7.33 w=7 l=1
X180 outputibias.t5 outputibias.t4 gnd.t45 gnd.t44 sky130_fd_pr__nfet_01v8 ad=2.34 pd=12.78 as=2.34 ps=12.78 w=6 l=2
X181 vdd.t181 a_n1986_13878.t55 a_n1986_8322.t7 vdd.t180 sky130_fd_pr__pfet_01v8_lvt ad=1.485 pd=9.33 as=3.51 ps=18.78 w=9 l=0.5
X182 CSoutput.t80 commonsourceibias.t121 gnd.t283 gnd.t232 sky130_fd_pr__nfet_01v8 ad=1.155 pd=7.33 as=1.155 ps=7.33 w=7 l=1
X183 vdd.t105 vdd.t103 vdd.t104 vdd.t97 sky130_fd_pr__pfet_01v8_lvt ad=3.12 pd=16.78 as=0 ps=0 w=8 l=0.5
X184 gnd.t118 gnd.t115 gnd.t117 gnd.t116 sky130_fd_pr__nfet_01v8 ad=2.73 pd=14.78 as=0 ps=0 w=7 l=1
X185 a_n2903_n3924.t2 diffpairibias.t19 gnd.t16 gnd.t15 sky130_fd_pr__nfet_01v8 ad=2.73 pd=14.78 as=2.73 ps=14.78 w=7 l=1
X186 CSoutput.t6 a_n5644_8799.t55 vdd.t42 vdd.t37 sky130_fd_pr__pfet_01v8_lvt ad=1.32 pd=8.33 as=1.32 ps=8.33 w=8 l=0.5
X187 a_n1986_13878.t33 minus.t15 a_n2903_n3924.t12 gnd.t173 sky130_fd_pr__nfet_01v8 ad=1.155 pd=7.33 as=1.155 ps=7.33 w=7 l=0.5
X188 a_n2903_n3924.t1 diffpairibias.t20 gnd.t9 gnd.t8 sky130_fd_pr__nfet_01v8 ad=2.73 pd=14.78 as=2.73 ps=14.78 w=7 l=1
X189 commonsourceibias.t59 commonsourceibias.t58 gnd.t282 gnd.t281 sky130_fd_pr__nfet_01v8 ad=1.155 pd=7.33 as=1.155 ps=7.33 w=7 l=1
X190 vdd.t41 a_n5644_8799.t56 CSoutput.t31 vdd.t8 sky130_fd_pr__pfet_01v8_lvt ad=3.12 pd=16.78 as=1.32 ps=8.33 w=8 l=0.5
X191 gnd.t114 gnd.t112 gnd.t113 gnd.t84 sky130_fd_pr__nfet_01v8 ad=2.73 pd=14.78 as=0 ps=0 w=7 l=1
X192 gnd.t111 gnd.t109 gnd.t110 gnd.t76 sky130_fd_pr__nfet_01v8 ad=2.73 pd=14.78 as=0 ps=0 w=7 l=1
X193 gnd.t108 gnd.t106 minus.t1 gnd.t107 sky130_fd_pr__nfet_01v8 ad=0.165 pd=1.33 as=0.39 ps=2.78 w=1 l=0.5
X194 CSoutput.t79 commonsourceibias.t122 gnd.t280 gnd.t246 sky130_fd_pr__nfet_01v8 ad=1.155 pd=7.33 as=1.155 ps=7.33 w=7 l=1
X195 CSoutput.t78 commonsourceibias.t123 gnd.t279 gnd.t223 sky130_fd_pr__nfet_01v8 ad=1.155 pd=7.33 as=1.155 ps=7.33 w=7 l=1
X196 vdd.t40 a_n5644_8799.t57 CSoutput.t39 vdd.t23 sky130_fd_pr__pfet_01v8_lvt ad=1.32 pd=8.33 as=1.32 ps=8.33 w=8 l=0.5
X197 gnd.t105 gnd.t103 gnd.t104 gnd.t60 sky130_fd_pr__nfet_01v8 ad=2.73 pd=14.78 as=0 ps=0 w=7 l=0.5
X198 a_n1986_13878.t36 minus.t16 a_n2903_n3924.t11 gnd.t188 sky130_fd_pr__nfet_01v8 ad=1.155 pd=7.33 as=1.155 ps=7.33 w=7 l=0.5
X199 commonsourceibias.t23 commonsourceibias.t22 gnd.t278 gnd.t257 sky130_fd_pr__nfet_01v8 ad=1.155 pd=7.33 as=1.155 ps=7.33 w=7 l=1
X200 gnd.t277 commonsourceibias.t20 commonsourceibias.t21 gnd.t276 sky130_fd_pr__nfet_01v8 ad=1.155 pd=7.33 as=1.155 ps=7.33 w=7 l=1
X201 diffpairibias.t9 diffpairibias.t8 gnd.t30 gnd.t29 sky130_fd_pr__nfet_01v8 ad=2.73 pd=14.78 as=2.73 ps=14.78 w=7 l=1
X202 CSoutput.t77 commonsourceibias.t124 gnd.t275 gnd.t232 sky130_fd_pr__nfet_01v8 ad=1.155 pd=7.33 as=1.155 ps=7.33 w=7 l=1
X203 CSoutput.t76 commonsourceibias.t125 gnd.t274 gnd.t203 sky130_fd_pr__nfet_01v8 ad=1.155 pd=7.33 as=1.155 ps=7.33 w=7 l=1
X204 output.t9 CSoutput.t158 vdd.t177 gnd.t17 sky130_fd_pr__nfet_01v8_lvt ad=0.825 pd=5.33 as=0.825 ps=5.33 w=5 l=1
X205 a_n2903_n3924.t34 plus.t13 a_n5644_8799.t25 gnd.t187 sky130_fd_pr__nfet_01v8 ad=1.155 pd=7.33 as=1.155 ps=7.33 w=7 l=0.5
X206 gnd.t273 commonsourceibias.t18 commonsourceibias.t19 gnd.t272 sky130_fd_pr__nfet_01v8 ad=1.155 pd=7.33 as=1.155 ps=7.33 w=7 l=1
X207 CSoutput.t5 a_n5644_8799.t58 vdd.t39 vdd.t27 sky130_fd_pr__pfet_01v8_lvt ad=1.32 pd=8.33 as=1.32 ps=8.33 w=8 l=0.5
X208 commonsourceibias.t17 commonsourceibias.t16 gnd.t271 gnd.t270 sky130_fd_pr__nfet_01v8 ad=1.155 pd=7.33 as=1.155 ps=7.33 w=7 l=1
X209 outputibias.t3 outputibias.t2 gnd.t37 gnd.t36 sky130_fd_pr__nfet_01v8 ad=2.34 pd=12.78 as=2.34 ps=12.78 w=6 l=2
X210 vdd.t102 vdd.t100 vdd.t101 vdd.t82 sky130_fd_pr__pfet_01v8_lvt ad=3.12 pd=16.78 as=0 ps=0 w=8 l=0.5
X211 a_n1808_13878.t17 a_n1986_13878.t56 vdd.t5 vdd.t4 sky130_fd_pr__pfet_01v8_lvt ad=1.485 pd=9.33 as=1.485 ps=9.33 w=9 l=0.5
X212 vdd.t197 a_n1986_13878.t57 a_n1808_13878.t16 vdd.t196 sky130_fd_pr__pfet_01v8_lvt ad=1.485 pd=9.33 as=1.485 ps=9.33 w=9 l=0.5
X213 a_n2903_n3924.t10 minus.t17 a_n1986_13878.t34 gnd.t175 sky130_fd_pr__nfet_01v8 ad=1.155 pd=7.33 as=1.155 ps=7.33 w=7 l=0.5
X214 a_n2903_n3924.t33 plus.t14 a_n5644_8799.t21 gnd.t186 sky130_fd_pr__nfet_01v8 ad=1.155 pd=7.33 as=1.155 ps=7.33 w=7 l=0.5
X215 gnd.t269 commonsourceibias.t126 CSoutput.t75 gnd.t214 sky130_fd_pr__nfet_01v8 ad=1.155 pd=7.33 as=1.155 ps=7.33 w=7 l=1
X216 a_n5644_8799.t14 plus.t15 a_n2903_n3924.t32 gnd.t31 sky130_fd_pr__nfet_01v8 ad=1.155 pd=7.33 as=2.73 ps=14.78 w=7 l=0.5
X217 a_n2903_n3924.t9 minus.t18 a_n1986_13878.t1 gnd.t10 sky130_fd_pr__nfet_01v8 ad=2.73 pd=14.78 as=1.155 ps=7.33 w=7 l=0.5
X218 commonsourceibias.t15 commonsourceibias.t14 gnd.t268 gnd.t218 sky130_fd_pr__nfet_01v8 ad=1.155 pd=7.33 as=2.73 ps=14.78 w=7 l=1
X219 vdd.t99 vdd.t96 vdd.t98 vdd.t97 sky130_fd_pr__pfet_01v8_lvt ad=3.12 pd=16.78 as=0 ps=0 w=8 l=0.5
X220 gnd.t267 commonsourceibias.t12 commonsourceibias.t13 gnd.t208 sky130_fd_pr__nfet_01v8 ad=1.155 pd=7.33 as=1.155 ps=7.33 w=7 l=1
X221 diffpairibias.t7 diffpairibias.t6 gnd.t354 gnd.t353 sky130_fd_pr__nfet_01v8 ad=2.73 pd=14.78 as=2.73 ps=14.78 w=7 l=1
X222 CSoutput.t74 commonsourceibias.t127 gnd.t266 gnd.t206 sky130_fd_pr__nfet_01v8 ad=1.155 pd=7.33 as=1.155 ps=7.33 w=7 l=1
X223 commonsourceibias.t31 commonsourceibias.t30 gnd.t265 gnd.t254 sky130_fd_pr__nfet_01v8 ad=1.155 pd=7.33 as=1.155 ps=7.33 w=7 l=1
X224 CSoutput.t32 a_n5644_8799.t59 vdd.t38 vdd.t37 sky130_fd_pr__pfet_01v8_lvt ad=1.32 pd=8.33 as=1.32 ps=8.33 w=8 l=0.5
X225 vdd.t36 a_n5644_8799.t60 CSoutput.t21 vdd.t8 sky130_fd_pr__pfet_01v8_lvt ad=3.12 pd=16.78 as=1.32 ps=8.33 w=8 l=0.5
X226 a_n1986_8322.t1 a_n1986_13878.t58 a_n5644_8799.t1 vdd.t70 sky130_fd_pr__pfet_01v8_lvt ad=1.485 pd=9.33 as=1.485 ps=9.33 w=9 l=0.5
X227 gnd.t253 commonsourceibias.t128 CSoutput.t73 gnd.t214 sky130_fd_pr__nfet_01v8 ad=1.155 pd=7.33 as=1.155 ps=7.33 w=7 l=1
X228 vdd.t176 CSoutput.t159 output.t8 gnd.t18 sky130_fd_pr__nfet_01v8_lvt ad=0.825 pd=5.33 as=0.825 ps=5.33 w=5 l=1
X229 vdd.t35 a_n5644_8799.t61 CSoutput.t139 vdd.t34 sky130_fd_pr__pfet_01v8_lvt ad=1.32 pd=8.33 as=1.32 ps=8.33 w=8 l=0.5
X230 CSoutput.t16 a_n5644_8799.t62 vdd.t33 vdd.t14 sky130_fd_pr__pfet_01v8_lvt ad=1.32 pd=8.33 as=1.32 ps=8.33 w=8 l=0.5
X231 CSoutput.t72 commonsourceibias.t129 gnd.t264 gnd.t191 sky130_fd_pr__nfet_01v8 ad=1.155 pd=7.33 as=2.73 ps=14.78 w=7 l=1
X232 gnd.t263 commonsourceibias.t28 commonsourceibias.t29 gnd.t262 sky130_fd_pr__nfet_01v8 ad=1.155 pd=7.33 as=1.155 ps=7.33 w=7 l=1
X233 vdd.t32 a_n5644_8799.t63 CSoutput.t0 vdd.t23 sky130_fd_pr__pfet_01v8_lvt ad=1.32 pd=8.33 as=1.32 ps=8.33 w=8 l=0.5
X234 vdd.t193 a_n1986_13878.t59 a_n1986_8322.t18 vdd.t192 sky130_fd_pr__pfet_01v8_lvt ad=1.485 pd=9.33 as=3.51 ps=18.78 w=9 l=0.5
X235 plus.t1 gnd.t100 gnd.t102 gnd.t101 sky130_fd_pr__nfet_01v8 ad=0.165 pd=1.33 as=0.165 ps=1.33 w=1 l=0.5
X236 gnd.t99 gnd.t97 minus.t0 gnd.t98 sky130_fd_pr__nfet_01v8 ad=0.165 pd=1.33 as=0.165 ps=1.33 w=1 l=0.5
X237 gnd.t261 commonsourceibias.t130 CSoutput.t71 gnd.t212 sky130_fd_pr__nfet_01v8 ad=1.155 pd=7.33 as=1.155 ps=7.33 w=7 l=1
X238 a_n1808_13878.t15 a_n1986_13878.t60 vdd.t159 vdd.t158 sky130_fd_pr__pfet_01v8_lvt ad=3.51 pd=18.78 as=1.485 ps=9.33 w=9 l=0.5
X239 output.t7 CSoutput.t160 vdd.t171 gnd.t19 sky130_fd_pr__nfet_01v8_lvt ad=1.95 pd=10.78 as=0.825 ps=5.33 w=5 l=1
X240 gnd.t96 gnd.t93 gnd.t95 gnd.t94 sky130_fd_pr__nfet_01v8 ad=2.73 pd=14.78 as=0 ps=0 w=7 l=1
X241 a_n2903_n3924.t44 diffpairibias.t21 gnd.t178 gnd.t177 sky130_fd_pr__nfet_01v8 ad=2.73 pd=14.78 as=2.73 ps=14.78 w=7 l=1
X242 CSoutput.t28 a_n5644_8799.t64 vdd.t31 vdd.t27 sky130_fd_pr__pfet_01v8_lvt ad=1.32 pd=8.33 as=1.32 ps=8.33 w=8 l=0.5
X243 gnd.t260 commonsourceibias.t26 commonsourceibias.t27 gnd.t195 sky130_fd_pr__nfet_01v8 ad=1.155 pd=7.33 as=1.155 ps=7.33 w=7 l=1
X244 CSoutput.t3 a_n5644_8799.t65 vdd.t30 vdd.t25 sky130_fd_pr__pfet_01v8_lvt ad=1.32 pd=8.33 as=3.12 ps=16.78 w=8 l=0.5
X245 vdd.t95 vdd.t93 vdd.t94 vdd.t82 sky130_fd_pr__pfet_01v8_lvt ad=3.12 pd=16.78 as=0 ps=0 w=8 l=0.5
X246 a_n1986_8322.t19 a_n1986_13878.t61 a_n5644_8799.t31 vdd.t191 sky130_fd_pr__pfet_01v8_lvt ad=1.485 pd=9.33 as=1.485 ps=9.33 w=9 l=0.5