* NGSPICE file created from opamp270.ext - technology: sky130A

.subckt opamp270 gnd CSoutput output vdd plus minus commonsourceibias outputibias
+ diffpairibias
X0 a_n7636_8799.t30 plus.t5 a_n3827_n3924.t37 gnd.t0 sky130_fd_pr__nfet_01v8 ad=1.155 pd=7.33 as=1.155 ps=7.33 w=7 l=0.7
X1 CSoutput.t156 a_n7636_8799.t36 vdd.t240 vdd.t196 sky130_fd_pr__pfet_01v8 ad=1.32 pd=8.33 as=1.32 ps=8.33 w=8 l=0.5
X2 a_n2140_13878.t23 a_n2318_13878.t52 vdd.t106 vdd.t105 sky130_fd_pr__pfet_01v8 ad=1.485 pd=9.33 as=1.485 ps=9.33 w=9 l=0.5
X3 a_n2140_13878.t15 a_n2318_13878.t14 a_n2318_13878.t15 vdd.t96 sky130_fd_pr__pfet_01v8 ad=1.485 pd=9.33 as=1.485 ps=9.33 w=9 l=0.5
X4 vdd.t239 a_n7636_8799.t37 CSoutput.t155 vdd.t190 sky130_fd_pr__pfet_01v8 ad=1.32 pd=8.33 as=1.32 ps=8.33 w=8 l=0.5
X5 outputibias.t7 outputibias.t6 gnd.t170 gnd.t169 sky130_fd_pr__nfet_01v8 ad=2.34 pd=12.78 as=2.34 ps=12.78 w=6 l=2
X6 gnd.t329 gnd.t327 plus.t4 gnd.t328 sky130_fd_pr__nfet_01v8 ad=0.165 pd=1.33 as=0.165 ps=1.33 w=1 l=0.5
X7 a_n3827_n3924.t18 diffpairibias.t20 gnd.t154 gnd.t153 sky130_fd_pr__nfet_01v8 ad=2.73 pd=14.78 as=2.73 ps=14.78 w=7 l=1
X8 gnd.t82 commonsourceibias.t80 CSoutput.t23 gnd.t30 sky130_fd_pr__nfet_01v8 ad=1.155 pd=7.33 as=1.155 ps=7.33 w=7 l=1
X9 gnd.t326 gnd.t324 gnd.t325 gnd.t305 sky130_fd_pr__nfet_01v8 ad=2.73 pd=14.78 as=0 ps=0 w=7 l=1
X10 CSoutput.t154 a_n7636_8799.t38 vdd.t238 vdd.t121 sky130_fd_pr__pfet_01v8 ad=1.32 pd=8.33 as=1.32 ps=8.33 w=8 l=0.5
X11 commonsourceibias.t79 commonsourceibias.t78 gnd.t15 gnd.t13 sky130_fd_pr__nfet_01v8 ad=1.155 pd=7.33 as=2.73 ps=14.78 w=7 l=1
X12 a_n3827_n3924.t38 plus.t6 a_n7636_8799.t29 gnd.t208 sky130_fd_pr__nfet_01v8 ad=1.155 pd=7.33 as=1.155 ps=7.33 w=7 l=0.7
X13 commonsourceibias.t77 commonsourceibias.t76 gnd.t51 gnd.t50 sky130_fd_pr__nfet_01v8 ad=1.155 pd=7.33 as=1.155 ps=7.33 w=7 l=1
X14 gnd.t323 gnd.t321 gnd.t322 gnd.t305 sky130_fd_pr__nfet_01v8 ad=2.73 pd=14.78 as=0 ps=0 w=7 l=1
X15 vdd.t87 vdd.t85 vdd.t86 vdd.t46 sky130_fd_pr__pfet_01v8 ad=3.12 pd=16.78 as=0 ps=0 w=8 l=0.5
X16 a_n3827_n3924.t13 minus.t5 a_n2318_13878.t42 gnd.t118 sky130_fd_pr__nfet_01v8 ad=2.73 pd=14.78 as=1.155 ps=7.33 w=7 l=0.7
X17 vdd.t10 CSoutput.t176 output.t19 gnd.t57 sky130_fd_pr__nfet_01v8 ad=0.825 pd=5.33 as=0.825 ps=5.33 w=5 l=1
X18 a_n2318_8322.t23 a_n2318_13878.t53 a_n7636_8799.t4 vdd.t103 sky130_fd_pr__pfet_01v8 ad=1.485 pd=9.33 as=1.485 ps=9.33 w=9 l=0.5
X19 gnd.t320 gnd.t318 gnd.t319 gnd.t237 sky130_fd_pr__nfet_01v8 ad=2.73 pd=14.78 as=0 ps=0 w=7 l=1
X20 CSoutput.t24 commonsourceibias.t81 gnd.t84 gnd.t83 sky130_fd_pr__nfet_01v8 ad=1.155 pd=7.33 as=1.155 ps=7.33 w=7 l=1
X21 CSoutput.t153 a_n7636_8799.t39 vdd.t237 vdd.t160 sky130_fd_pr__pfet_01v8 ad=1.32 pd=8.33 as=1.32 ps=8.33 w=8 l=0.5
X22 gnd.t339 commonsourceibias.t74 commonsourceibias.t75 gnd.t11 sky130_fd_pr__nfet_01v8 ad=2.73 pd=14.78 as=1.155 ps=7.33 w=7 l=1
X23 CSoutput.t172 commonsourceibias.t82 gnd.t348 gnd.t19 sky130_fd_pr__nfet_01v8 ad=1.155 pd=7.33 as=1.155 ps=7.33 w=7 l=1
X24 vdd.t236 a_n7636_8799.t40 CSoutput.t152 vdd.t186 sky130_fd_pr__pfet_01v8 ad=1.32 pd=8.33 as=1.32 ps=8.33 w=8 l=0.5
X25 gnd.t317 gnd.t315 gnd.t316 gnd.t237 sky130_fd_pr__nfet_01v8 ad=2.73 pd=14.78 as=0 ps=0 w=7 l=1
X26 a_n2318_13878.t40 minus.t6 a_n3827_n3924.t11 gnd.t85 sky130_fd_pr__nfet_01v8 ad=1.155 pd=7.33 as=1.155 ps=7.33 w=7 l=0.7
X27 commonsourceibias.t73 commonsourceibias.t72 gnd.t202 gnd.t19 sky130_fd_pr__nfet_01v8 ad=1.155 pd=7.33 as=1.155 ps=7.33 w=7 l=1
X28 vdd.t11 CSoutput.t177 output.t18 gnd.t58 sky130_fd_pr__nfet_01v8 ad=0.825 pd=5.33 as=0.825 ps=5.33 w=5 l=1
X29 a_n7636_8799.t6 a_n2318_13878.t54 a_n2318_8322.t22 vdd.t104 sky130_fd_pr__pfet_01v8 ad=1.485 pd=9.33 as=3.51 ps=18.78 w=9 l=0.5
X30 CSoutput.t173 commonsourceibias.t83 gnd.t349 gnd.t23 sky130_fd_pr__nfet_01v8 ad=1.155 pd=7.33 as=1.155 ps=7.33 w=7 l=1
X31 vdd.t235 a_n7636_8799.t41 CSoutput.t151 vdd.t208 sky130_fd_pr__pfet_01v8 ad=1.32 pd=8.33 as=1.32 ps=8.33 w=8 l=0.5
X32 a_n2318_13878.t51 minus.t7 a_n3827_n3924.t26 gnd.t210 sky130_fd_pr__nfet_01v8 ad=1.155 pd=7.33 as=1.155 ps=7.33 w=7 l=0.7
X33 CSoutput.t150 a_n7636_8799.t42 vdd.t234 vdd.t162 sky130_fd_pr__pfet_01v8 ad=1.32 pd=8.33 as=1.32 ps=8.33 w=8 l=0.5
X34 vdd.t233 a_n7636_8799.t43 CSoutput.t149 vdd.t205 sky130_fd_pr__pfet_01v8 ad=1.32 pd=8.33 as=1.32 ps=8.33 w=8 l=0.5
X35 a_n7636_8799.t7 a_n2318_13878.t55 a_n2318_8322.t21 vdd.t112 sky130_fd_pr__pfet_01v8 ad=1.485 pd=9.33 as=3.51 ps=18.78 w=9 l=0.5
X36 gnd.t314 gnd.t311 gnd.t313 gnd.t312 sky130_fd_pr__nfet_01v8 ad=1.95 pd=10.78 as=0 ps=0 w=5 l=1
X37 commonsourceibias.t71 commonsourceibias.t70 gnd.t184 gnd.t183 sky130_fd_pr__nfet_01v8 ad=1.155 pd=7.33 as=1.155 ps=7.33 w=7 l=1
X38 a_n3827_n3924.t8 minus.t8 a_n2318_13878.t7 gnd.t29 sky130_fd_pr__nfet_01v8 ad=2.73 pd=14.78 as=1.155 ps=7.33 w=7 l=0.7
X39 vdd.t84 vdd.t82 vdd.t83 vdd.t13 sky130_fd_pr__pfet_01v8 ad=3.51 pd=18.78 as=0 ps=0 w=9 l=0.5
X40 CSoutput.t148 a_n7636_8799.t44 vdd.t232 vdd.t196 sky130_fd_pr__pfet_01v8 ad=1.32 pd=8.33 as=1.32 ps=8.33 w=8 l=0.5
X41 a_n3827_n3924.t20 diffpairibias.t21 gnd.t187 gnd.t186 sky130_fd_pr__nfet_01v8 ad=2.73 pd=14.78 as=2.73 ps=14.78 w=7 l=1
X42 CSoutput.t9 commonsourceibias.t84 gnd.t35 gnd.t34 sky130_fd_pr__nfet_01v8 ad=1.155 pd=7.33 as=1.155 ps=7.33 w=7 l=1
X43 CSoutput.t147 a_n7636_8799.t45 vdd.t231 vdd.t154 sky130_fd_pr__pfet_01v8 ad=1.32 pd=8.33 as=3.12 ps=16.78 w=8 l=0.5
X44 gnd.t37 commonsourceibias.t85 CSoutput.t10 gnd.t36 sky130_fd_pr__nfet_01v8 ad=1.155 pd=7.33 as=1.155 ps=7.33 w=7 l=1
X45 gnd.t310 gnd.t308 gnd.t309 gnd.t223 sky130_fd_pr__nfet_01v8 ad=2.73 pd=14.78 as=0 ps=0 w=7 l=1
X46 gnd.t91 commonsourceibias.t68 commonsourceibias.t69 gnd.t90 sky130_fd_pr__nfet_01v8 ad=1.155 pd=7.33 as=1.155 ps=7.33 w=7 l=1
X47 CSoutput.t146 a_n7636_8799.t46 vdd.t230 vdd.t121 sky130_fd_pr__pfet_01v8 ad=1.32 pd=8.33 as=1.32 ps=8.33 w=8 l=0.5
X48 commonsourceibias.t67 commonsourceibias.t66 gnd.t203 gnd.t136 sky130_fd_pr__nfet_01v8 ad=1.155 pd=7.33 as=1.155 ps=7.33 w=7 l=1
X49 a_n3827_n3924.t36 plus.t7 a_n7636_8799.t28 gnd.t8 sky130_fd_pr__nfet_01v8 ad=1.155 pd=7.33 as=1.155 ps=7.33 w=7 l=0.7
X50 gnd.t175 commonsourceibias.t86 CSoutput.t50 gnd.t46 sky130_fd_pr__nfet_01v8 ad=1.155 pd=7.33 as=1.155 ps=7.33 w=7 l=1
X51 a_n2140_13878.t14 a_n2318_13878.t12 a_n2318_13878.t13 vdd.t92 sky130_fd_pr__pfet_01v8 ad=1.485 pd=9.33 as=1.485 ps=9.33 w=9 l=0.5
X52 vdd.t81 vdd.t79 vdd.t80 vdd.t46 sky130_fd_pr__pfet_01v8 ad=3.12 pd=16.78 as=0 ps=0 w=8 l=0.5
X53 gnd.t176 commonsourceibias.t87 CSoutput.t51 gnd.t48 sky130_fd_pr__nfet_01v8 ad=1.155 pd=7.33 as=1.155 ps=7.33 w=7 l=1
X54 a_n2318_13878.t27 a_n2318_13878.t26 a_n2140_13878.t13 vdd.t111 sky130_fd_pr__pfet_01v8 ad=1.485 pd=9.33 as=1.485 ps=9.33 w=9 l=0.5
X55 gnd.t114 commonsourceibias.t88 CSoutput.t29 gnd.t71 sky130_fd_pr__nfet_01v8 ad=1.155 pd=7.33 as=1.155 ps=7.33 w=7 l=1
X56 a_n7636_8799.t27 plus.t8 a_n3827_n3924.t35 gnd.t27 sky130_fd_pr__nfet_01v8 ad=1.155 pd=7.33 as=1.155 ps=7.33 w=7 l=0.7
X57 CSoutput.t145 a_n7636_8799.t47 vdd.t224 vdd.t160 sky130_fd_pr__pfet_01v8 ad=1.32 pd=8.33 as=1.32 ps=8.33 w=8 l=0.5
X58 output.t17 CSoutput.t178 vdd.t0 gnd.t16 sky130_fd_pr__nfet_01v8 ad=0.825 pd=5.33 as=0.825 ps=5.33 w=5 l=1
X59 vdd.t78 vdd.t76 vdd.t77 vdd.t59 sky130_fd_pr__pfet_01v8 ad=3.51 pd=18.78 as=0 ps=0 w=9 l=0.5
X60 vdd.t229 a_n7636_8799.t48 CSoutput.t144 vdd.t186 sky130_fd_pr__pfet_01v8 ad=1.32 pd=8.33 as=1.32 ps=8.33 w=8 l=0.5
X61 gnd.t185 commonsourceibias.t64 commonsourceibias.t65 gnd.t36 sky130_fd_pr__nfet_01v8 ad=1.155 pd=7.33 as=1.155 ps=7.33 w=7 l=1
X62 diffpairibias.t19 diffpairibias.t18 gnd.t123 gnd.t122 sky130_fd_pr__nfet_01v8 ad=2.73 pd=14.78 as=2.73 ps=14.78 w=7 l=1
X63 commonsourceibias.t63 commonsourceibias.t62 gnd.t92 gnd.t65 sky130_fd_pr__nfet_01v8 ad=1.155 pd=7.33 as=1.155 ps=7.33 w=7 l=1
X64 a_n2318_13878.t45 minus.t9 a_n3827_n3924.t19 gnd.t171 sky130_fd_pr__nfet_01v8 ad=1.155 pd=7.33 as=1.155 ps=7.33 w=7 l=0.7
X65 a_n7636_8799.t31 a_n2318_13878.t56 a_n2318_8322.t20 vdd.t95 sky130_fd_pr__pfet_01v8 ad=1.485 pd=9.33 as=1.485 ps=9.33 w=9 l=0.5
X66 CSoutput.t143 a_n7636_8799.t49 vdd.t228 vdd.t193 sky130_fd_pr__pfet_01v8 ad=1.32 pd=8.33 as=1.32 ps=8.33 w=8 l=0.5
X67 commonsourceibias.t61 commonsourceibias.t60 gnd.t204 gnd.t95 sky130_fd_pr__nfet_01v8 ad=1.155 pd=7.33 as=1.155 ps=7.33 w=7 l=1
X68 vdd.t223 a_n7636_8799.t50 CSoutput.t142 vdd.t129 sky130_fd_pr__pfet_01v8 ad=1.32 pd=8.33 as=1.32 ps=8.33 w=8 l=0.5
X69 vdd.t227 a_n7636_8799.t51 CSoutput.t141 vdd.t205 sky130_fd_pr__pfet_01v8 ad=1.32 pd=8.33 as=1.32 ps=8.33 w=8 l=0.5
X70 gnd.t307 gnd.t304 gnd.t306 gnd.t305 sky130_fd_pr__nfet_01v8 ad=2.73 pd=14.78 as=0 ps=0 w=7 l=1
X71 plus.t3 gnd.t301 gnd.t303 gnd.t302 sky130_fd_pr__nfet_01v8 ad=0.165 pd=1.33 as=0.165 ps=1.33 w=1 l=0.5
X72 diffpairibias.t17 diffpairibias.t16 gnd.t109 gnd.t108 sky130_fd_pr__nfet_01v8 ad=2.73 pd=14.78 as=2.73 ps=14.78 w=7 l=1
X73 gnd.t94 commonsourceibias.t58 commonsourceibias.t59 gnd.t93 sky130_fd_pr__nfet_01v8 ad=1.155 pd=7.33 as=1.155 ps=7.33 w=7 l=1
X74 CSoutput.t140 a_n7636_8799.t52 vdd.t226 vdd.t136 sky130_fd_pr__pfet_01v8 ad=1.32 pd=8.33 as=1.32 ps=8.33 w=8 l=0.5
X75 CSoutput.t30 commonsourceibias.t89 gnd.t115 gnd.t83 sky130_fd_pr__nfet_01v8 ad=1.155 pd=7.33 as=1.155 ps=7.33 w=7 l=1
X76 gnd.t300 gnd.t298 gnd.t299 gnd.t245 sky130_fd_pr__nfet_01v8 ad=2.73 pd=14.78 as=0 ps=0 w=7 l=0.7
X77 vdd.t225 a_n7636_8799.t53 CSoutput.t139 vdd.t117 sky130_fd_pr__pfet_01v8 ad=1.32 pd=8.33 as=1.32 ps=8.33 w=8 l=0.5
X78 CSoutput.t138 a_n7636_8799.t54 vdd.t222 vdd.t211 sky130_fd_pr__pfet_01v8 ad=1.32 pd=8.33 as=1.32 ps=8.33 w=8 l=0.5
X79 CSoutput.t159 commonsourceibias.t90 gnd.t220 gnd.t162 sky130_fd_pr__nfet_01v8 ad=1.155 pd=7.33 as=1.155 ps=7.33 w=7 l=1
X80 CSoutput.t137 a_n7636_8799.t55 vdd.t221 vdd.t154 sky130_fd_pr__pfet_01v8 ad=1.32 pd=8.33 as=3.12 ps=16.78 w=8 l=0.5
X81 CSoutput.t136 a_n7636_8799.t56 vdd.t220 vdd.t171 sky130_fd_pr__pfet_01v8 ad=1.32 pd=8.33 as=3.12 ps=16.78 w=8 l=0.5
X82 CSoutput.t135 a_n7636_8799.t57 vdd.t219 vdd.t211 sky130_fd_pr__pfet_01v8 ad=1.32 pd=8.33 as=1.32 ps=8.33 w=8 l=0.5
X83 gnd.t72 commonsourceibias.t56 commonsourceibias.t57 gnd.t71 sky130_fd_pr__nfet_01v8 ad=1.155 pd=7.33 as=1.155 ps=7.33 w=7 l=1
X84 vdd.t1 CSoutput.t179 output.t16 gnd.t17 sky130_fd_pr__nfet_01v8 ad=0.825 pd=5.33 as=0.825 ps=5.33 w=5 l=1
X85 CSoutput.t160 commonsourceibias.t91 gnd.t221 gnd.t136 sky130_fd_pr__nfet_01v8 ad=1.155 pd=7.33 as=1.155 ps=7.33 w=7 l=1
X86 CSoutput.t56 commonsourceibias.t92 gnd.t181 gnd.t138 sky130_fd_pr__nfet_01v8 ad=1.155 pd=7.33 as=1.155 ps=7.33 w=7 l=1
X87 a_n3827_n3924.t40 plus.t9 a_n7636_8799.t26 gnd.t124 sky130_fd_pr__nfet_01v8 ad=1.155 pd=7.33 as=1.155 ps=7.33 w=7 l=0.7
X88 CSoutput.t57 commonsourceibias.t93 gnd.t182 gnd.t104 sky130_fd_pr__nfet_01v8 ad=1.155 pd=7.33 as=1.155 ps=7.33 w=7 l=1
X89 CSoutput.t5 commonsourceibias.t94 gnd.t24 gnd.t23 sky130_fd_pr__nfet_01v8 ad=1.155 pd=7.33 as=1.155 ps=7.33 w=7 l=1
X90 a_n3827_n3924.t10 diffpairibias.t22 gnd.t60 gnd.t59 sky130_fd_pr__nfet_01v8 ad=2.73 pd=14.78 as=2.73 ps=14.78 w=7 l=1
X91 vdd.t218 a_n7636_8799.t58 CSoutput.t134 vdd.t181 sky130_fd_pr__pfet_01v8 ad=1.32 pd=8.33 as=1.32 ps=8.33 w=8 l=0.5
X92 a_n2318_13878.t11 a_n2318_13878.t10 a_n2140_13878.t12 vdd.t103 sky130_fd_pr__pfet_01v8 ad=1.485 pd=9.33 as=1.485 ps=9.33 w=9 l=0.5
X93 vdd.t217 a_n7636_8799.t59 CSoutput.t133 vdd.t164 sky130_fd_pr__pfet_01v8 ad=1.32 pd=8.33 as=1.32 ps=8.33 w=8 l=0.5
X94 output.t15 CSoutput.t180 vdd.t2 gnd.t18 sky130_fd_pr__nfet_01v8 ad=1.95 pd=10.78 as=0.825 ps=5.33 w=5 l=1
X95 a_n7636_8799.t32 a_n2318_13878.t57 a_n2318_8322.t19 vdd.t249 sky130_fd_pr__pfet_01v8 ad=1.485 pd=9.33 as=1.485 ps=9.33 w=9 l=0.5
X96 vdd.t216 a_n7636_8799.t60 CSoutput.t132 vdd.t208 sky130_fd_pr__pfet_01v8 ad=1.32 pd=8.33 as=1.32 ps=8.33 w=8 l=0.5
X97 a_n2318_13878.t37 a_n2318_13878.t36 a_n2140_13878.t11 vdd.t107 sky130_fd_pr__pfet_01v8 ad=3.51 pd=18.78 as=1.485 ps=9.33 w=9 l=0.5
X98 gnd.t190 commonsourceibias.t54 commonsourceibias.t55 gnd.t69 sky130_fd_pr__nfet_01v8 ad=1.155 pd=7.33 as=1.155 ps=7.33 w=7 l=1
X99 gnd.t99 commonsourceibias.t52 commonsourceibias.t53 gnd.t63 sky130_fd_pr__nfet_01v8 ad=1.155 pd=7.33 as=1.155 ps=7.33 w=7 l=1
X100 gnd.t140 commonsourceibias.t50 commonsourceibias.t51 gnd.t61 sky130_fd_pr__nfet_01v8 ad=1.155 pd=7.33 as=1.155 ps=7.33 w=7 l=1
X101 output.t3 outputibias.t8 gnd.t117 gnd.t116 sky130_fd_pr__nfet_01v8 ad=2.34 pd=12.78 as=2.34 ps=12.78 w=6 l=2
X102 CSoutput.t181 a_n2318_8322.t27 sky130_fd_pr__cap_mim_m3_1 l=12 w=12
X103 vdd.t215 a_n7636_8799.t61 CSoutput.t131 vdd.t131 sky130_fd_pr__pfet_01v8 ad=1.32 pd=8.33 as=1.32 ps=8.33 w=8 l=0.5
X104 CSoutput.t130 a_n7636_8799.t62 vdd.t214 vdd.t169 sky130_fd_pr__pfet_01v8 ad=1.32 pd=8.33 as=1.32 ps=8.33 w=8 l=0.5
X105 gnd.t297 gnd.t294 gnd.t296 gnd.t295 sky130_fd_pr__nfet_01v8 ad=2.34 pd=12.78 as=0 ps=0 w=6 l=2
X106 diffpairibias.t15 diffpairibias.t14 gnd.t217 gnd.t216 sky130_fd_pr__nfet_01v8 ad=2.73 pd=14.78 as=2.73 ps=14.78 w=7 l=1
X107 a_n2318_13878.t2 minus.t10 a_n3827_n3924.t2 gnd.t2 sky130_fd_pr__nfet_01v8 ad=1.155 pd=7.33 as=1.155 ps=7.33 w=7 l=0.7
X108 output.t2 outputibias.t9 gnd.t168 gnd.t167 sky130_fd_pr__nfet_01v8 ad=2.34 pd=12.78 as=2.34 ps=12.78 w=6 l=2
X109 vdd.t75 vdd.t73 vdd.t74 vdd.t63 sky130_fd_pr__pfet_01v8 ad=3.51 pd=18.78 as=0 ps=0 w=9 l=0.5
X110 vdd.t72 vdd.t70 vdd.t71 vdd.t25 sky130_fd_pr__pfet_01v8 ad=3.12 pd=16.78 as=0 ps=0 w=8 l=0.5
X111 CSoutput.t129 a_n7636_8799.t63 vdd.t213 vdd.t136 sky130_fd_pr__pfet_01v8 ad=1.32 pd=8.33 as=1.32 ps=8.33 w=8 l=0.5
X112 gnd.t26 commonsourceibias.t95 CSoutput.t6 gnd.t25 sky130_fd_pr__nfet_01v8 ad=1.155 pd=7.33 as=1.155 ps=7.33 w=7 l=1
X113 vdd.t69 vdd.t66 vdd.t68 vdd.t67 sky130_fd_pr__pfet_01v8 ad=3.51 pd=18.78 as=0 ps=0 w=9 l=0.5
X114 gnd.t179 commonsourceibias.t96 CSoutput.t54 gnd.t90 sky130_fd_pr__nfet_01v8 ad=1.155 pd=7.33 as=1.155 ps=7.33 w=7 l=1
X115 gnd.t180 commonsourceibias.t97 CSoutput.t55 gnd.t93 sky130_fd_pr__nfet_01v8 ad=1.155 pd=7.33 as=1.155 ps=7.33 w=7 l=1
X116 gnd.t47 commonsourceibias.t98 CSoutput.t11 gnd.t46 sky130_fd_pr__nfet_01v8 ad=1.155 pd=7.33 as=1.155 ps=7.33 w=7 l=1
X117 a_n3827_n3924.t12 minus.t11 a_n2318_13878.t41 gnd.t112 sky130_fd_pr__nfet_01v8 ad=1.155 pd=7.33 as=1.155 ps=7.33 w=7 l=0.7
X118 gnd.t49 commonsourceibias.t99 CSoutput.t12 gnd.t48 sky130_fd_pr__nfet_01v8 ad=1.155 pd=7.33 as=1.155 ps=7.33 w=7 l=1
X119 output.t14 CSoutput.t182 vdd.t3 gnd.t41 sky130_fd_pr__nfet_01v8 ad=0.825 pd=5.33 as=0.825 ps=5.33 w=5 l=1
X120 vdd.t4 CSoutput.t183 output.t13 gnd.t42 sky130_fd_pr__nfet_01v8 ad=0.825 pd=5.33 as=1.95 ps=10.78 w=5 l=1
X121 vdd.t244 a_n2318_13878.t58 a_n2318_8322.t7 vdd.t243 sky130_fd_pr__pfet_01v8 ad=1.485 pd=9.33 as=1.485 ps=9.33 w=9 l=0.5
X122 a_n2318_13878.t19 a_n2318_13878.t18 a_n2140_13878.t10 vdd.t94 sky130_fd_pr__pfet_01v8 ad=3.51 pd=18.78 as=1.485 ps=9.33 w=9 l=0.5
X123 gnd.t12 commonsourceibias.t100 CSoutput.t1 gnd.t11 sky130_fd_pr__nfet_01v8 ad=2.73 pd=14.78 as=1.155 ps=7.33 w=7 l=1
X124 gnd.t293 gnd.t291 gnd.t292 gnd.t241 sky130_fd_pr__nfet_01v8 ad=2.73 pd=14.78 as=0 ps=0 w=7 l=1
X125 a_n2318_8322.t6 a_n2318_13878.t59 vdd.t246 vdd.t245 sky130_fd_pr__pfet_01v8 ad=1.485 pd=9.33 as=1.485 ps=9.33 w=9 l=0.5
X126 a_n3827_n3924.t3 diffpairibias.t23 gnd.t6 gnd.t5 sky130_fd_pr__nfet_01v8 ad=2.73 pd=14.78 as=2.73 ps=14.78 w=7 l=1
X127 CSoutput.t128 a_n7636_8799.t64 vdd.t212 vdd.t211 sky130_fd_pr__pfet_01v8 ad=1.32 pd=8.33 as=1.32 ps=8.33 w=8 l=0.5
X128 CSoutput.t127 a_n7636_8799.t65 vdd.t210 vdd.t171 sky130_fd_pr__pfet_01v8 ad=1.32 pd=8.33 as=3.12 ps=16.78 w=8 l=0.5
X129 gnd.t290 gnd.t288 gnd.t289 gnd.t252 sky130_fd_pr__nfet_01v8 ad=2.73 pd=14.78 as=0 ps=0 w=7 l=0.7
X130 CSoutput.t2 commonsourceibias.t101 gnd.t14 gnd.t13 sky130_fd_pr__nfet_01v8 ad=1.155 pd=7.33 as=2.73 ps=14.78 w=7 l=1
X131 a_n3827_n3924.t7 minus.t12 a_n2318_13878.t6 gnd.t28 sky130_fd_pr__nfet_01v8 ad=1.155 pd=7.33 as=1.155 ps=7.33 w=7 l=0.7
X132 gnd.t100 commonsourceibias.t48 commonsourceibias.t49 gnd.t75 sky130_fd_pr__nfet_01v8 ad=1.155 pd=7.33 as=1.155 ps=7.33 w=7 l=1
X133 vdd.t255 a_n2318_13878.t60 a_n2140_13878.t22 vdd.t254 sky130_fd_pr__pfet_01v8 ad=1.485 pd=9.33 as=1.485 ps=9.33 w=9 l=0.5
X134 a_n2318_13878.t1 minus.t13 a_n3827_n3924.t1 gnd.t1 sky130_fd_pr__nfet_01v8 ad=1.155 pd=7.33 as=2.73 ps=14.78 w=7 l=0.7
X135 a_n3827_n3924.t27 plus.t10 a_n7636_8799.t25 gnd.t189 sky130_fd_pr__nfet_01v8 ad=1.155 pd=7.33 as=1.155 ps=7.33 w=7 l=0.7
X136 a_n3827_n3924.t31 plus.t11 a_n7636_8799.t24 gnd.t7 sky130_fd_pr__nfet_01v8 ad=1.155 pd=7.33 as=1.155 ps=7.33 w=7 l=0.7
X137 gnd.t211 commonsourceibias.t102 CSoutput.t157 gnd.t73 sky130_fd_pr__nfet_01v8 ad=1.155 pd=7.33 as=1.155 ps=7.33 w=7 l=1
X138 vdd.t65 vdd.t62 vdd.t64 vdd.t63 sky130_fd_pr__pfet_01v8 ad=3.51 pd=18.78 as=0 ps=0 w=9 l=0.5
X139 vdd.t209 a_n7636_8799.t66 CSoutput.t126 vdd.t208 sky130_fd_pr__pfet_01v8 ad=1.32 pd=8.33 as=1.32 ps=8.33 w=8 l=0.5
X140 gnd.t141 commonsourceibias.t46 commonsourceibias.t47 gnd.t48 sky130_fd_pr__nfet_01v8 ad=1.155 pd=7.33 as=1.155 ps=7.33 w=7 l=1
X141 a_n7636_8799.t23 plus.t12 a_n3827_n3924.t39 gnd.t188 sky130_fd_pr__nfet_01v8 ad=1.155 pd=7.33 as=1.155 ps=7.33 w=7 l=0.7
X142 a_n7636_8799.t22 plus.t13 a_n3827_n3924.t45 gnd.t121 sky130_fd_pr__nfet_01v8 ad=1.155 pd=7.33 as=2.73 ps=14.78 w=7 l=0.7
X143 vdd.t61 vdd.t58 vdd.t60 vdd.t59 sky130_fd_pr__pfet_01v8 ad=3.51 pd=18.78 as=0 ps=0 w=9 l=0.5
X144 a_n2318_8322.t5 a_n2318_13878.t61 vdd.t257 vdd.t256 sky130_fd_pr__pfet_01v8 ad=3.51 pd=18.78 as=1.485 ps=9.33 w=9 l=0.5
X145 a_n7636_8799.t8 a_n2318_13878.t62 a_n2318_8322.t18 vdd.t88 sky130_fd_pr__pfet_01v8 ad=1.485 pd=9.33 as=1.485 ps=9.33 w=9 l=0.5
X146 CSoutput.t125 a_n7636_8799.t67 vdd.t207 vdd.t147 sky130_fd_pr__pfet_01v8 ad=1.32 pd=8.33 as=1.32 ps=8.33 w=8 l=0.5
X147 diffpairibias.t13 diffpairibias.t12 gnd.t359 gnd.t358 sky130_fd_pr__nfet_01v8 ad=2.73 pd=14.78 as=2.73 ps=14.78 w=7 l=1
X148 CSoutput.t184 a_n2318_8322.t25 sky130_fd_pr__cap_mim_m3_1 l=12 w=12
X149 vdd.t206 a_n7636_8799.t68 CSoutput.t124 vdd.t205 sky130_fd_pr__pfet_01v8 ad=1.32 pd=8.33 as=1.32 ps=8.33 w=8 l=0.5
X150 CSoutput.t158 commonsourceibias.t103 gnd.t212 gnd.t162 sky130_fd_pr__nfet_01v8 ad=1.155 pd=7.33 as=1.155 ps=7.33 w=7 l=1
X151 a_n2318_13878.t50 minus.t14 a_n3827_n3924.t25 gnd.t209 sky130_fd_pr__nfet_01v8 ad=1.155 pd=7.33 as=1.155 ps=7.33 w=7 l=0.7
X152 a_n2318_13878.t23 a_n2318_13878.t22 a_n2140_13878.t9 vdd.t110 sky130_fd_pr__pfet_01v8 ad=1.485 pd=9.33 as=1.485 ps=9.33 w=9 l=0.5
X153 vdd.t204 a_n7636_8799.t69 CSoutput.t123 vdd.t131 sky130_fd_pr__pfet_01v8 ad=1.32 pd=8.33 as=1.32 ps=8.33 w=8 l=0.5
X154 a_n7636_8799.t9 a_n2318_13878.t63 a_n2318_8322.t17 vdd.t96 sky130_fd_pr__pfet_01v8 ad=1.485 pd=9.33 as=1.485 ps=9.33 w=9 l=0.5
X155 CSoutput.t122 a_n7636_8799.t70 vdd.t203 vdd.t169 sky130_fd_pr__pfet_01v8 ad=1.32 pd=8.33 as=1.32 ps=8.33 w=8 l=0.5
X156 CSoutput.t40 commonsourceibias.t104 gnd.t137 gnd.t136 sky130_fd_pr__nfet_01v8 ad=1.155 pd=7.33 as=1.155 ps=7.33 w=7 l=1
X157 a_n2140_13878.t8 a_n2318_13878.t16 a_n2318_13878.t17 vdd.t249 sky130_fd_pr__pfet_01v8 ad=1.485 pd=9.33 as=1.485 ps=9.33 w=9 l=0.5
X158 commonsourceibias.t45 commonsourceibias.t44 gnd.t191 gnd.t83 sky130_fd_pr__nfet_01v8 ad=1.155 pd=7.33 as=1.155 ps=7.33 w=7 l=1
X159 CSoutput.t41 commonsourceibias.t105 gnd.t139 gnd.t138 sky130_fd_pr__nfet_01v8 ad=1.155 pd=7.33 as=1.155 ps=7.33 w=7 l=1
X160 gnd.t287 gnd.t285 minus.t4 gnd.t286 sky130_fd_pr__nfet_01v8 ad=0.165 pd=1.33 as=0.39 ps=2.78 w=1 l=0.5
X161 vdd.t57 vdd.t55 vdd.t56 vdd.t25 sky130_fd_pr__pfet_01v8 ad=3.12 pd=16.78 as=0 ps=0 w=8 l=0.5
X162 gnd.t346 commonsourceibias.t106 CSoutput.t170 gnd.t143 sky130_fd_pr__nfet_01v8 ad=2.73 pd=14.78 as=1.155 ps=7.33 w=7 l=1
X163 a_n3827_n3924.t23 minus.t15 a_n2318_13878.t48 gnd.t207 sky130_fd_pr__nfet_01v8 ad=1.155 pd=7.33 as=1.155 ps=7.33 w=7 l=0.7
X164 CSoutput.t171 commonsourceibias.t107 gnd.t347 gnd.t104 sky130_fd_pr__nfet_01v8 ad=1.155 pd=7.33 as=1.155 ps=7.33 w=7 l=1
X165 vdd.t5 CSoutput.t185 output.t12 gnd.t43 sky130_fd_pr__nfet_01v8 ad=0.825 pd=5.33 as=0.825 ps=5.33 w=5 l=1
X166 CSoutput.t8 commonsourceibias.t108 gnd.t33 gnd.t32 sky130_fd_pr__nfet_01v8 ad=1.155 pd=7.33 as=1.155 ps=7.33 w=7 l=1
X167 gnd.t174 commonsourceibias.t109 CSoutput.t49 gnd.t80 sky130_fd_pr__nfet_01v8 ad=1.155 pd=7.33 as=1.155 ps=7.33 w=7 l=1
X168 CSoutput.t121 a_n7636_8799.t71 vdd.t202 vdd.t193 sky130_fd_pr__pfet_01v8 ad=1.32 pd=8.33 as=1.32 ps=8.33 w=8 l=0.5
X169 gnd.t192 commonsourceibias.t42 commonsourceibias.t43 gnd.t128 sky130_fd_pr__nfet_01v8 ad=1.155 pd=7.33 as=1.155 ps=7.33 w=7 l=1
X170 vdd.t251 a_n2318_13878.t64 a_n2318_8322.t4 vdd.t250 sky130_fd_pr__pfet_01v8 ad=1.485 pd=9.33 as=3.51 ps=18.78 w=9 l=0.5
X171 a_n2140_13878.t7 a_n2318_13878.t8 a_n2318_13878.t9 vdd.t104 sky130_fd_pr__pfet_01v8 ad=1.485 pd=9.33 as=3.51 ps=18.78 w=9 l=0.5
X172 gnd.t113 commonsourceibias.t110 CSoutput.t28 gnd.t69 sky130_fd_pr__nfet_01v8 ad=1.155 pd=7.33 as=1.155 ps=7.33 w=7 l=1
X173 vdd.t201 a_n7636_8799.t72 CSoutput.t120 vdd.t190 sky130_fd_pr__pfet_01v8 ad=1.32 pd=8.33 as=1.32 ps=8.33 w=8 l=0.5
X174 a_n2318_13878.t33 a_n2318_13878.t32 a_n2140_13878.t6 vdd.t89 sky130_fd_pr__pfet_01v8 ad=1.485 pd=9.33 as=1.485 ps=9.33 w=9 l=0.5
X175 commonsourceibias.t41 commonsourceibias.t40 gnd.t101 gnd.t86 sky130_fd_pr__nfet_01v8 ad=1.155 pd=7.33 as=1.155 ps=7.33 w=7 l=1
X176 gnd.t74 commonsourceibias.t38 commonsourceibias.t39 gnd.t73 sky130_fd_pr__nfet_01v8 ad=1.155 pd=7.33 as=1.155 ps=7.33 w=7 l=1
X177 a_n3827_n3924.t43 plus.t14 a_n7636_8799.t21 gnd.t118 sky130_fd_pr__nfet_01v8 ad=2.73 pd=14.78 as=1.155 ps=7.33 w=7 l=0.7
X178 gnd.t284 gnd.t282 minus.t3 gnd.t283 sky130_fd_pr__nfet_01v8 ad=0.165 pd=1.33 as=0.165 ps=1.33 w=1 l=0.5
X179 vdd.t200 a_n7636_8799.t73 CSoutput.t119 vdd.t149 sky130_fd_pr__pfet_01v8 ad=1.32 pd=8.33 as=1.32 ps=8.33 w=8 l=0.5
X180 gnd.t193 commonsourceibias.t36 commonsourceibias.t37 gnd.t80 sky130_fd_pr__nfet_01v8 ad=1.155 pd=7.33 as=1.155 ps=7.33 w=7 l=1
X181 a_n3827_n3924.t9 diffpairibias.t24 gnd.t45 gnd.t44 sky130_fd_pr__nfet_01v8 ad=2.73 pd=14.78 as=2.73 ps=14.78 w=7 l=1
X182 commonsourceibias.t35 commonsourceibias.t34 gnd.t102 gnd.t23 sky130_fd_pr__nfet_01v8 ad=1.155 pd=7.33 as=1.155 ps=7.33 w=7 l=1
X183 a_n3827_n3924.t17 diffpairibias.t25 gnd.t152 gnd.t151 sky130_fd_pr__nfet_01v8 ad=2.73 pd=14.78 as=2.73 ps=14.78 w=7 l=1
X184 gnd.t135 commonsourceibias.t111 CSoutput.t39 gnd.t77 sky130_fd_pr__nfet_01v8 ad=1.155 pd=7.33 as=1.155 ps=7.33 w=7 l=1
X185 vdd.t199 a_n7636_8799.t74 CSoutput.t118 vdd.t181 sky130_fd_pr__pfet_01v8 ad=1.32 pd=8.33 as=1.32 ps=8.33 w=8 l=0.5
X186 vdd.t198 a_n7636_8799.t75 CSoutput.t117 vdd.t152 sky130_fd_pr__pfet_01v8 ad=3.12 pd=16.78 as=1.32 ps=8.33 w=8 l=0.5
X187 a_n7636_8799.t20 plus.t15 a_n3827_n3924.t34 gnd.t85 sky130_fd_pr__nfet_01v8 ad=1.155 pd=7.33 as=1.155 ps=7.33 w=7 l=0.7
X188 gnd.t178 commonsourceibias.t112 CSoutput.t53 gnd.t25 sky130_fd_pr__nfet_01v8 ad=1.155 pd=7.33 as=1.155 ps=7.33 w=7 l=1
X189 gnd.t177 commonsourceibias.t113 CSoutput.t52 gnd.t93 sky130_fd_pr__nfet_01v8 ad=1.155 pd=7.33 as=1.155 ps=7.33 w=7 l=1
X190 gnd.t134 commonsourceibias.t114 CSoutput.t38 gnd.t90 sky130_fd_pr__nfet_01v8 ad=1.155 pd=7.33 as=1.155 ps=7.33 w=7 l=1
X191 gnd.t133 commonsourceibias.t115 CSoutput.t37 gnd.t11 sky130_fd_pr__nfet_01v8 ad=2.73 pd=14.78 as=1.155 ps=7.33 w=7 l=1
X192 CSoutput.t186 a_n2318_8322.t26 sky130_fd_pr__cap_mim_m3_1 l=12 w=12
X193 CSoutput.t36 commonsourceibias.t116 gnd.t132 gnd.t131 sky130_fd_pr__nfet_01v8 ad=1.155 pd=7.33 as=1.155 ps=7.33 w=7 l=1
X194 CSoutput.t116 a_n7636_8799.t76 vdd.t192 vdd.t115 sky130_fd_pr__pfet_01v8 ad=1.32 pd=8.33 as=1.32 ps=8.33 w=8 l=0.5
X195 commonsourceibias.t33 commonsourceibias.t32 gnd.t142 gnd.t9 sky130_fd_pr__nfet_01v8 ad=1.155 pd=7.33 as=1.155 ps=7.33 w=7 l=1
X196 CSoutput.t35 commonsourceibias.t117 gnd.t130 gnd.t13 sky130_fd_pr__nfet_01v8 ad=1.155 pd=7.33 as=2.73 ps=14.78 w=7 l=1
X197 CSoutput.t115 a_n7636_8799.t77 vdd.t197 vdd.t196 sky130_fd_pr__pfet_01v8 ad=1.32 pd=8.33 as=1.32 ps=8.33 w=8 l=0.5
X198 CSoutput.t114 a_n7636_8799.t78 vdd.t195 vdd.t178 sky130_fd_pr__pfet_01v8 ad=1.32 pd=8.33 as=1.32 ps=8.33 w=8 l=0.5
X199 CSoutput.t187 a_n2318_8322.t26 sky130_fd_pr__cap_mim_m3_1 l=12 w=12
X200 gnd.t338 commonsourceibias.t118 CSoutput.t167 gnd.t197 sky130_fd_pr__nfet_01v8 ad=1.155 pd=7.33 as=1.155 ps=7.33 w=7 l=1
X201 CSoutput.t166 commonsourceibias.t119 gnd.t337 gnd.t145 sky130_fd_pr__nfet_01v8 ad=1.155 pd=7.33 as=1.155 ps=7.33 w=7 l=1
X202 gnd.t281 gnd.t279 gnd.t280 gnd.t223 sky130_fd_pr__nfet_01v8 ad=2.73 pd=14.78 as=0 ps=0 w=7 l=1
X203 diffpairibias.t11 diffpairibias.t10 gnd.t219 gnd.t218 sky130_fd_pr__nfet_01v8 ad=2.73 pd=14.78 as=2.73 ps=14.78 w=7 l=1
X204 a_n2140_13878.t21 a_n2318_13878.t65 vdd.t253 vdd.t252 sky130_fd_pr__pfet_01v8 ad=1.485 pd=9.33 as=1.485 ps=9.33 w=9 l=0.5
X205 gnd.t336 commonsourceibias.t120 CSoutput.t165 gnd.t73 sky130_fd_pr__nfet_01v8 ad=1.155 pd=7.33 as=1.155 ps=7.33 w=7 l=1
X206 vdd.t248 a_n2318_13878.t66 a_n2140_13878.t20 vdd.t247 sky130_fd_pr__pfet_01v8 ad=1.485 pd=9.33 as=1.485 ps=9.33 w=9 l=0.5
X207 output.t1 outputibias.t10 gnd.t40 gnd.t39 sky130_fd_pr__nfet_01v8 ad=2.34 pd=12.78 as=2.34 ps=12.78 w=6 l=2
X208 vdd.t54 vdd.t52 vdd.t53 vdd.t42 sky130_fd_pr__pfet_01v8 ad=3.12 pd=16.78 as=0 ps=0 w=8 l=0.5
X209 gnd.t194 commonsourceibias.t30 commonsourceibias.t31 gnd.t77 sky130_fd_pr__nfet_01v8 ad=1.155 pd=7.33 as=1.155 ps=7.33 w=7 l=1
X210 CSoutput.t113 a_n7636_8799.t79 vdd.t194 vdd.t193 sky130_fd_pr__pfet_01v8 ad=1.32 pd=8.33 as=1.32 ps=8.33 w=8 l=0.5
X211 gnd.t144 commonsourceibias.t28 commonsourceibias.t29 gnd.t143 sky130_fd_pr__nfet_01v8 ad=2.73 pd=14.78 as=1.155 ps=7.33 w=7 l=1
X212 vdd.t191 a_n7636_8799.t80 CSoutput.t112 vdd.t190 sky130_fd_pr__pfet_01v8 ad=1.32 pd=8.33 as=1.32 ps=8.33 w=8 l=0.5
X213 commonsourceibias.t27 commonsourceibias.t26 gnd.t38 gnd.t32 sky130_fd_pr__nfet_01v8 ad=1.155 pd=7.33 as=1.155 ps=7.33 w=7 l=1
X214 vdd.t51 vdd.t49 vdd.t50 vdd.t42 sky130_fd_pr__pfet_01v8 ad=3.12 pd=16.78 as=0 ps=0 w=8 l=0.5
X215 CSoutput.t161 commonsourceibias.t121 gnd.t332 gnd.t183 sky130_fd_pr__nfet_01v8 ad=1.155 pd=7.33 as=1.155 ps=7.33 w=7 l=1
X216 a_n2140_13878.t5 a_n2318_13878.t38 a_n2318_13878.t39 vdd.t95 sky130_fd_pr__pfet_01v8 ad=1.485 pd=9.33 as=1.485 ps=9.33 w=9 l=0.5
X217 diffpairibias.t9 diffpairibias.t8 gnd.t206 gnd.t205 sky130_fd_pr__nfet_01v8 ad=2.73 pd=14.78 as=2.73 ps=14.78 w=7 l=1
X218 a_n3827_n3924.t5 minus.t16 a_n2318_13878.t4 gnd.t8 sky130_fd_pr__nfet_01v8 ad=1.155 pd=7.33 as=1.155 ps=7.33 w=7 l=0.7
X219 vdd.t189 a_n7636_8799.t81 CSoutput.t111 vdd.t149 sky130_fd_pr__pfet_01v8 ad=1.32 pd=8.33 as=1.32 ps=8.33 w=8 l=0.5
X220 gnd.t103 commonsourceibias.t24 commonsourceibias.t25 gnd.t46 sky130_fd_pr__nfet_01v8 ad=1.155 pd=7.33 as=1.155 ps=7.33 w=7 l=1
X221 CSoutput.t164 commonsourceibias.t122 gnd.t335 gnd.t106 sky130_fd_pr__nfet_01v8 ad=1.155 pd=7.33 as=2.73 ps=14.78 w=7 l=1
X222 a_n2318_8322.t16 a_n2318_13878.t67 a_n7636_8799.t10 vdd.t97 sky130_fd_pr__pfet_01v8 ad=1.485 pd=9.33 as=1.485 ps=9.33 w=9 l=0.5
X223 CSoutput.t110 a_n7636_8799.t82 vdd.t188 vdd.t144 sky130_fd_pr__pfet_01v8 ad=1.32 pd=8.33 as=1.32 ps=8.33 w=8 l=0.5
X224 diffpairibias.t7 diffpairibias.t6 gnd.t111 gnd.t110 sky130_fd_pr__nfet_01v8 ad=2.73 pd=14.78 as=2.73 ps=14.78 w=7 l=1
X225 vdd.t187 a_n7636_8799.t83 CSoutput.t109 vdd.t186 sky130_fd_pr__pfet_01v8 ad=1.32 pd=8.33 as=1.32 ps=8.33 w=8 l=0.5
X226 a_n2318_13878.t5 minus.t17 a_n3827_n3924.t6 gnd.t27 sky130_fd_pr__nfet_01v8 ad=1.155 pd=7.33 as=1.155 ps=7.33 w=7 l=0.7
X227 a_n2318_13878.t0 minus.t18 a_n3827_n3924.t0 gnd.t0 sky130_fd_pr__nfet_01v8 ad=1.155 pd=7.33 as=1.155 ps=7.33 w=7 l=0.7
X228 gnd.t334 commonsourceibias.t123 CSoutput.t163 gnd.t143 sky130_fd_pr__nfet_01v8 ad=2.73 pd=14.78 as=1.155 ps=7.33 w=7 l=1
X229 plus.t0 gnd.t276 gnd.t278 gnd.t277 sky130_fd_pr__nfet_01v8 ad=0.165 pd=1.33 as=0.165 ps=1.33 w=1 l=0.5
X230 vdd.t259 a_n2318_13878.t68 a_n2318_8322.t3 vdd.t258 sky130_fd_pr__pfet_01v8 ad=1.485 pd=9.33 as=3.51 ps=18.78 w=9 l=0.5
X231 vdd.t185 a_n7636_8799.t84 CSoutput.t108 vdd.t152 sky130_fd_pr__pfet_01v8 ad=3.12 pd=16.78 as=1.32 ps=8.33 w=8 l=0.5
X232 vdd.t182 a_n7636_8799.t85 CSoutput.t107 vdd.t181 sky130_fd_pr__pfet_01v8 ad=1.32 pd=8.33 as=1.32 ps=8.33 w=8 l=0.5
X233 vdd.t241 CSoutput.t188 output.t11 gnd.t214 sky130_fd_pr__nfet_01v8 ad=0.825 pd=5.33 as=0.825 ps=5.33 w=5 l=1
X234 CSoutput.t44 commonsourceibias.t124 gnd.t164 gnd.t65 sky130_fd_pr__nfet_01v8 ad=1.155 pd=7.33 as=1.155 ps=7.33 w=7 l=1
X235 a_n7636_8799.t19 plus.t16 a_n3827_n3924.t30 gnd.t171 sky130_fd_pr__nfet_01v8 ad=1.155 pd=7.33 as=1.155 ps=7.33 w=7 l=0.7
X236 CSoutput.t162 commonsourceibias.t125 gnd.t333 gnd.t32 sky130_fd_pr__nfet_01v8 ad=1.155 pd=7.33 as=1.155 ps=7.33 w=7 l=1
X237 gnd.t275 gnd.t272 gnd.t274 gnd.t273 sky130_fd_pr__nfet_01v8 ad=2.34 pd=12.78 as=0 ps=0 w=6 l=2
X238 gnd.t271 gnd.t269 minus.t2 gnd.t270 sky130_fd_pr__nfet_01v8 ad=0.39 pd=2.78 as=0.165 ps=1.33 w=1 l=0.5
X239 gnd.t81 commonsourceibias.t126 CSoutput.t22 gnd.t80 sky130_fd_pr__nfet_01v8 ad=1.155 pd=7.33 as=1.155 ps=7.33 w=7 l=1
X240 a_n3827_n3924.t24 minus.t19 a_n2318_13878.t49 gnd.t208 sky130_fd_pr__nfet_01v8 ad=1.155 pd=7.33 as=1.155 ps=7.33 w=7 l=0.7
X241 gnd.t268 gnd.t265 gnd.t267 gnd.t266 sky130_fd_pr__nfet_01v8 ad=2.73 pd=14.78 as=0 ps=0 w=7 l=1
X242 gnd.t70 commonsourceibias.t127 CSoutput.t18 gnd.t69 sky130_fd_pr__nfet_01v8 ad=1.155 pd=7.33 as=1.155 ps=7.33 w=7 l=1
X243 a_n2140_13878.t19 a_n2318_13878.t69 vdd.t261 vdd.t260 sky130_fd_pr__pfet_01v8 ad=3.51 pd=18.78 as=1.485 ps=9.33 w=9 l=0.5
X244 CSoutput.t21 commonsourceibias.t128 gnd.t79 gnd.t50 sky130_fd_pr__nfet_01v8 ad=1.155 pd=7.33 as=1.155 ps=7.33 w=7 l=1
X245 commonsourceibias.t23 commonsourceibias.t22 gnd.t105 gnd.t104 sky130_fd_pr__nfet_01v8 ad=1.155 pd=7.33 as=1.155 ps=7.33 w=7 l=1
X246 CSoutput.t17 commonsourceibias.t129 gnd.t68 gnd.t21 sky130_fd_pr__nfet_01v8 ad=1.155 pd=7.33 as=1.155 ps=7.33 w=7 l=1
X247 vdd.t184 a_n7636_8799.t86 CSoutput.t106 vdd.t164 sky130_fd_pr__pfet_01v8 ad=1.32 pd=8.33 as=1.32 ps=8.33 w=8 l=0.5