* NGSPICE file created from opamp.ext - technology: sky130A

.subckt opamp output vdd plus minus commonsourceibias outputibias diffpairibias gnd CSoutput
Cload output gnd 0.0p
X0 a_n5644_8799.t28 plus.t5 a_n2903_n3924.t26 gnd.t175 sky130_fd_pr__nfet_01v8 ad=1.155 pd=7.33 as=1.155 ps=7.33 w=7 l=0.7
X1 CSoutput.t112 a_n1986_8322.t2 sky130_fd_pr__cap_mim_m3_1 l=12 w=12
X2 commonsourceibias.t63 commonsourceibias.t62 gnd.t15 gnd.t14 sky130_fd_pr__nfet_01v8 ad=1.155 pd=7.33 as=1.155 ps=7.33 w=7 l=1
X3 gnd.t126 commonsourceibias.t64 CSoutput.t78 gnd.t25 sky130_fd_pr__nfet_01v8 ad=1.155 pd=7.33 as=1.155 ps=7.33 w=7 l=1
X4 vdd.t176 a_n5644_8799.t32 CSoutput.t69 vdd.t123 sky130_fd_pr__pfet_01v8_lvt ad=1.32 pd=8.33 as=1.32 ps=8.33 w=8 l=0.5
X5 a_n1986_8322.t14 a_n1996_n452.t44 vdd.t189 vdd.t188 sky130_fd_pr__pfet_01v8_lvt ad=1.485 pd=9.33 as=1.485 ps=9.33 w=9 l=0.5
X6 a_n1808_13878.t11 a_n1996_n452.t14 a_n1996_n452.t15 vdd.t0 sky130_fd_pr__pfet_01v8_lvt ad=1.485 pd=9.33 as=3.51 ps=18.78 w=9 l=0.5
X7 gnd.t285 gnd.t283 plus.t4 gnd.t284 sky130_fd_pr__nfet_01v8 ad=0.165 pd=1.33 as=0.165 ps=1.33 w=1 l=0.5
X8 gnd.t68 commonsourceibias.t65 CSoutput.t21 gnd.t36 sky130_fd_pr__nfet_01v8 ad=1.155 pd=7.33 as=1.155 ps=7.33 w=7 l=1
X9 a_n2903_n3924.t42 plus.t6 a_n5644_8799.t27 gnd.t166 sky130_fd_pr__nfet_01v8 ad=1.155 pd=7.33 as=1.155 ps=7.33 w=7 l=0.7
X10 a_n1996_n452.t1 a_n1996_n452.t0 a_n1808_13878.t10 vdd.t112 sky130_fd_pr__pfet_01v8_lvt ad=1.485 pd=9.33 as=1.485 ps=9.33 w=9 l=0.5
X11 a_n1808_13878.t9 a_n1996_n452.t2 a_n1996_n452.t3 vdd.t6 sky130_fd_pr__pfet_01v8_lvt ad=1.485 pd=9.33 as=1.485 ps=9.33 w=9 l=0.5
X12 vdd.t102 vdd.t100 vdd.t101 vdd.t75 sky130_fd_pr__pfet_01v8_lvt ad=3.51 pd=18.78 as=0 ps=0 w=9 l=0.5
X13 a_n1808_13878.t19 a_n1996_n452.t45 vdd.t197 vdd.t196 sky130_fd_pr__pfet_01v8_lvt ad=1.485 pd=9.33 as=1.485 ps=9.33 w=9 l=0.5
X14 gnd.t282 gnd.t280 gnd.t281 gnd.t179 sky130_fd_pr__nfet_01v8 ad=2.73 pd=14.78 as=0 ps=0 w=7 l=1
X15 gnd.t172 commonsourceibias.t60 commonsourceibias.t61 gnd.t74 sky130_fd_pr__nfet_01v8 ad=1.155 pd=7.33 as=1.155 ps=7.33 w=7 l=1
X16 vdd.t17 CSoutput.t113 output.t15 gnd.t11 sky130_fd_pr__nfet_01v8_lvt ad=0.825 pd=5.33 as=0.825 ps=5.33 w=5 l=1
X17 CSoutput.t68 a_n5644_8799.t33 vdd.t175 vdd.t119 sky130_fd_pr__pfet_01v8_lvt ad=1.32 pd=8.33 as=1.32 ps=8.33 w=8 l=0.5
X18 gnd.t94 commonsourceibias.t66 CSoutput.t27 gnd.t74 sky130_fd_pr__nfet_01v8 ad=1.155 pd=7.33 as=1.155 ps=7.33 w=7 l=1
X19 a_n2903_n3924.t2 minus.t5 a_n1996_n452.t26 gnd.t20 sky130_fd_pr__nfet_01v8 ad=2.73 pd=14.78 as=1.155 ps=7.33 w=7 l=0.7
X20 vdd.t99 vdd.t97 vdd.t98 vdd.t50 sky130_fd_pr__pfet_01v8_lvt ad=3.12 pd=16.78 as=0 ps=0 w=8 l=0.5
X21 gnd.t147 commonsourceibias.t67 CSoutput.t84 gnd.t82 sky130_fd_pr__nfet_01v8 ad=1.155 pd=7.33 as=1.155 ps=7.33 w=7 l=1
X22 a_n1996_n452.t41 minus.t6 a_n2903_n3924.t21 gnd.t168 sky130_fd_pr__nfet_01v8 ad=1.155 pd=7.33 as=1.155 ps=7.33 w=7 l=0.7
X23 output.t14 CSoutput.t114 vdd.t8 gnd.t115 sky130_fd_pr__nfet_01v8_lvt ad=1.95 pd=10.78 as=0.825 ps=5.33 w=5 l=1
X24 a_n1986_8322.t6 a_n1996_n452.t46 a_n5644_8799.t3 vdd.t105 sky130_fd_pr__pfet_01v8_lvt ad=1.485 pd=9.33 as=1.485 ps=9.33 w=9 l=0.5
X25 gnd.t52 commonsourceibias.t58 commonsourceibias.t59 gnd.t34 sky130_fd_pr__nfet_01v8 ad=1.155 pd=7.33 as=1.155 ps=7.33 w=7 l=1
X26 a_n1996_n452.t35 minus.t7 a_n2903_n3924.t15 gnd.t162 sky130_fd_pr__nfet_01v8 ad=1.155 pd=7.33 as=1.155 ps=7.33 w=7 l=0.7
X27 CSoutput.t115 a_n1986_8322.t2 sky130_fd_pr__cap_mim_m3_1 l=12 w=12
X28 output.t19 outputibias.t8 gnd.t306 gnd.t305 sky130_fd_pr__nfet_01v8 ad=2.34 pd=12.78 as=2.34 ps=12.78 w=6 l=2
X29 gnd.t279 gnd.t277 gnd.t278 gnd.t225 sky130_fd_pr__nfet_01v8 ad=2.73 pd=14.78 as=0 ps=0 w=7 l=1
X30 CSoutput.t98 commonsourceibias.t68 gnd.t291 gnd.t48 sky130_fd_pr__nfet_01v8 ad=1.155 pd=7.33 as=1.155 ps=7.33 w=7 l=1
X31 a_n2903_n3924.t14 minus.t8 a_n1996_n452.t34 gnd.t161 sky130_fd_pr__nfet_01v8 ad=2.73 pd=14.78 as=1.155 ps=7.33 w=7 l=0.7
X32 gnd.t67 commonsourceibias.t56 commonsourceibias.t57 gnd.t66 sky130_fd_pr__nfet_01v8 ad=1.155 pd=7.33 as=1.155 ps=7.33 w=7 l=1
X33 CSoutput.t62 a_n5644_8799.t34 vdd.t174 vdd.t132 sky130_fd_pr__pfet_01v8_lvt ad=1.32 pd=8.33 as=3.12 ps=16.78 w=8 l=0.5
X34 vdd.t173 a_n5644_8799.t35 CSoutput.t61 vdd.t150 sky130_fd_pr__pfet_01v8_lvt ad=3.12 pd=16.78 as=1.32 ps=8.33 w=8 l=0.5
X35 output.t16 outputibias.t9 gnd.t88 gnd.t87 sky130_fd_pr__nfet_01v8 ad=2.34 pd=12.78 as=2.34 ps=12.78 w=6 l=2
X36 a_n5644_8799.t0 a_n1996_n452.t47 a_n1986_8322.t0 vdd.t0 sky130_fd_pr__pfet_01v8_lvt ad=1.485 pd=9.33 as=3.51 ps=18.78 w=9 l=0.5
X37 CSoutput.t60 a_n5644_8799.t36 vdd.t172 vdd.t113 sky130_fd_pr__pfet_01v8_lvt ad=1.32 pd=8.33 as=3.12 ps=16.78 w=8 l=0.5
X38 vdd.t171 a_n5644_8799.t37 CSoutput.t59 vdd.t166 sky130_fd_pr__pfet_01v8_lvt ad=1.32 pd=8.33 as=1.32 ps=8.33 w=8 l=0.5
X39 CSoutput.t100 commonsourceibias.t69 gnd.t293 gnd.t78 sky130_fd_pr__nfet_01v8 ad=1.155 pd=7.33 as=1.155 ps=7.33 w=7 l=1
X40 a_n2903_n3924.t44 diffpairibias.t16 gnd.t300 gnd.t299 sky130_fd_pr__nfet_01v8 ad=2.73 pd=14.78 as=2.73 ps=14.78 w=7 l=1
X41 vdd.t15 CSoutput.t116 output.t13 gnd.t116 sky130_fd_pr__nfet_01v8_lvt ad=0.825 pd=5.33 as=1.95 ps=10.78 w=5 l=1
X42 output.t12 CSoutput.t117 vdd.t18 gnd.t117 sky130_fd_pr__nfet_01v8_lvt ad=0.825 pd=5.33 as=0.825 ps=5.33 w=5 l=1
X43 output.t17 outputibias.t10 gnd.t101 gnd.t100 sky130_fd_pr__nfet_01v8 ad=2.34 pd=12.78 as=2.34 ps=12.78 w=6 l=2
X44 CSoutput.t102 commonsourceibias.t70 gnd.t295 gnd.t59 sky130_fd_pr__nfet_01v8 ad=1.155 pd=7.33 as=1.155 ps=7.33 w=7 l=1
X45 CSoutput.t58 a_n5644_8799.t38 vdd.t170 vdd.t128 sky130_fd_pr__pfet_01v8_lvt ad=1.32 pd=8.33 as=1.32 ps=8.33 w=8 l=0.5
X46 vdd.t96 vdd.t94 vdd.t95 vdd.t28 sky130_fd_pr__pfet_01v8_lvt ad=3.12 pd=16.78 as=0 ps=0 w=8 l=0.5
X47 a_n2903_n3924.t35 plus.t7 a_n5644_8799.t26 gnd.t157 sky130_fd_pr__nfet_01v8 ad=1.155 pd=7.33 as=1.155 ps=7.33 w=7 l=0.7
X48 gnd.t304 commonsourceibias.t54 commonsourceibias.t55 gnd.t57 sky130_fd_pr__nfet_01v8 ad=2.73 pd=14.78 as=1.155 ps=7.33 w=7 l=1
X49 CSoutput.t99 commonsourceibias.t71 gnd.t292 gnd.t14 sky130_fd_pr__nfet_01v8 ad=1.155 pd=7.33 as=1.155 ps=7.33 w=7 l=1
X50 a_n5644_8799.t25 plus.t8 a_n2903_n3924.t32 gnd.t160 sky130_fd_pr__nfet_01v8 ad=1.155 pd=7.33 as=1.155 ps=7.33 w=7 l=0.7
X51 a_n1808_13878.t8 a_n1996_n452.t10 a_n1996_n452.t11 vdd.t187 sky130_fd_pr__pfet_01v8_lvt ad=1.485 pd=9.33 as=3.51 ps=18.78 w=9 l=0.5
X52 vdd.t169 a_n5644_8799.t39 CSoutput.t57 vdd.t166 sky130_fd_pr__pfet_01v8_lvt ad=1.32 pd=8.33 as=1.32 ps=8.33 w=8 l=0.5
X53 a_n1996_n452.t40 minus.t9 a_n2903_n3924.t20 gnd.t167 sky130_fd_pr__nfet_01v8 ad=1.155 pd=7.33 as=1.155 ps=7.33 w=7 l=0.7
X54 diffpairibias.t15 diffpairibias.t14 gnd.t105 gnd.t104 sky130_fd_pr__nfet_01v8 ad=2.73 pd=14.78 as=2.73 ps=14.78 w=7 l=1
X55 a_n1996_n452.t7 a_n1996_n452.t6 a_n1808_13878.t7 vdd.t109 sky130_fd_pr__pfet_01v8_lvt ad=1.485 pd=9.33 as=1.485 ps=9.33 w=9 l=0.5
X56 CSoutput.t64 a_n5644_8799.t40 vdd.t168 vdd.t144 sky130_fd_pr__pfet_01v8_lvt ad=1.32 pd=8.33 as=1.32 ps=8.33 w=8 l=0.5
X57 vdd.t93 vdd.t91 vdd.t92 vdd.t60 sky130_fd_pr__pfet_01v8_lvt ad=3.51 pd=18.78 as=0 ps=0 w=9 l=0.5
X58 plus.t0 gnd.t274 gnd.t276 gnd.t275 sky130_fd_pr__nfet_01v8 ad=0.165 pd=1.33 as=0.165 ps=1.33 w=1 l=0.5
X59 gnd.t37 commonsourceibias.t72 CSoutput.t9 gnd.t36 sky130_fd_pr__nfet_01v8 ad=1.155 pd=7.33 as=1.155 ps=7.33 w=7 l=1
X60 gnd.t288 commonsourceibias.t73 CSoutput.t95 gnd.t150 sky130_fd_pr__nfet_01v8 ad=1.155 pd=7.33 as=1.155 ps=7.33 w=7 l=1
X61 diffpairibias.t13 diffpairibias.t12 gnd.t90 gnd.t89 sky130_fd_pr__nfet_01v8 ad=2.73 pd=14.78 as=2.73 ps=14.78 w=7 l=1
X62 vdd.t90 vdd.t88 vdd.t89 vdd.t39 sky130_fd_pr__pfet_01v8_lvt ad=3.12 pd=16.78 as=0 ps=0 w=8 l=0.5
X63 gnd.t91 commonsourceibias.t74 CSoutput.t26 gnd.t66 sky130_fd_pr__nfet_01v8 ad=1.155 pd=7.33 as=1.155 ps=7.33 w=7 l=1
X64 gnd.t273 gnd.t271 gnd.t272 gnd.t196 sky130_fd_pr__nfet_01v8 ad=2.73 pd=14.78 as=0 ps=0 w=7 l=0.7
X65 commonsourceibias.t53 commonsourceibias.t52 gnd.t49 gnd.t48 sky130_fd_pr__nfet_01v8 ad=1.155 pd=7.33 as=1.155 ps=7.33 w=7 l=1
X66 vdd.t167 a_n5644_8799.t41 CSoutput.t63 vdd.t166 sky130_fd_pr__pfet_01v8_lvt ad=1.32 pd=8.33 as=1.32 ps=8.33 w=8 l=0.5
X67 vdd.t16 CSoutput.t118 output.t11 gnd.t118 sky130_fd_pr__nfet_01v8_lvt ad=0.825 pd=5.33 as=0.825 ps=5.33 w=5 l=1
X68 vdd.t165 a_n5644_8799.t42 CSoutput.t67 vdd.t141 sky130_fd_pr__pfet_01v8_lvt ad=1.32 pd=8.33 as=1.32 ps=8.33 w=8 l=0.5
X69 CSoutput.t66 a_n5644_8799.t43 vdd.t164 vdd.t113 sky130_fd_pr__pfet_01v8_lvt ad=1.32 pd=8.33 as=3.12 ps=16.78 w=8 l=0.5
X70 gnd.t83 commonsourceibias.t75 CSoutput.t25 gnd.t82 sky130_fd_pr__nfet_01v8 ad=1.155 pd=7.33 as=1.155 ps=7.33 w=7 l=1
X71 CSoutput.t119 a_n1986_8322.t2 sky130_fd_pr__cap_mim_m3_1 l=12 w=12
X72 commonsourceibias.t51 commonsourceibias.t50 gnd.t38 gnd.t31 sky130_fd_pr__nfet_01v8 ad=1.155 pd=7.33 as=1.155 ps=7.33 w=7 l=1
X73 vdd.t163 a_n5644_8799.t44 CSoutput.t65 vdd.t117 sky130_fd_pr__pfet_01v8_lvt ad=1.32 pd=8.33 as=1.32 ps=8.33 w=8 l=0.5
X74 gnd.t131 commonsourceibias.t76 CSoutput.t81 gnd.t23 sky130_fd_pr__nfet_01v8 ad=1.155 pd=7.33 as=1.155 ps=7.33 w=7 l=1
X75 a_n2903_n3924.t31 plus.t9 a_n5644_8799.t24 gnd.t159 sky130_fd_pr__nfet_01v8 ad=1.155 pd=7.33 as=1.155 ps=7.33 w=7 l=0.7
X76 commonsourceibias.t49 commonsourceibias.t48 gnd.t64 gnd.t63 sky130_fd_pr__nfet_01v8 ad=1.155 pd=7.33 as=1.155 ps=7.33 w=7 l=1
X77 CSoutput.t43 a_n5644_8799.t45 vdd.t162 vdd.t128 sky130_fd_pr__pfet_01v8_lvt ad=1.32 pd=8.33 as=1.32 ps=8.33 w=8 l=0.5
X78 CSoutput.t42 a_n5644_8799.t46 vdd.t161 vdd.t154 sky130_fd_pr__pfet_01v8_lvt ad=1.32 pd=8.33 as=1.32 ps=8.33 w=8 l=0.5
X79 CSoutput.t89 commonsourceibias.t77 gnd.t154 gnd.t39 sky130_fd_pr__nfet_01v8 ad=1.155 pd=7.33 as=2.73 ps=14.78 w=7 l=1
X80 a_n2903_n3924.t7 diffpairibias.t17 gnd.t137 gnd.t136 sky130_fd_pr__nfet_01v8 ad=2.73 pd=14.78 as=2.73 ps=14.78 w=7 l=1
X81 gnd.t96 commonsourceibias.t46 commonsourceibias.t47 gnd.t23 sky130_fd_pr__nfet_01v8 ad=1.155 pd=7.33 as=1.155 ps=7.33 w=7 l=1
X82 CSoutput.t41 a_n5644_8799.t47 vdd.t160 vdd.t154 sky130_fd_pr__pfet_01v8_lvt ad=1.32 pd=8.33 as=1.32 ps=8.33 w=8 l=0.5
X83 vdd.t159 a_n5644_8799.t48 CSoutput.t51 vdd.t152 sky130_fd_pr__pfet_01v8_lvt ad=1.32 pd=8.33 as=1.32 ps=8.33 w=8 l=0.5
X84 gnd.t95 commonsourceibias.t44 commonsourceibias.t45 gnd.t29 sky130_fd_pr__nfet_01v8 ad=2.73 pd=14.78 as=1.155 ps=7.33 w=7 l=1
X85 gnd.t270 gnd.t268 gnd.t269 gnd.t225 sky130_fd_pr__nfet_01v8 ad=2.73 pd=14.78 as=0 ps=0 w=7 l=1
X86 commonsourceibias.t43 commonsourceibias.t42 gnd.t133 gnd.t59 sky130_fd_pr__nfet_01v8 ad=1.155 pd=7.33 as=1.155 ps=7.33 w=7 l=1
X87 a_n1996_n452.t13 a_n1996_n452.t12 a_n1808_13878.t6 vdd.t105 sky130_fd_pr__pfet_01v8_lvt ad=1.485 pd=9.33 as=1.485 ps=9.33 w=9 l=0.5
X88 a_n1996_n452.t9 a_n1996_n452.t8 a_n1808_13878.t5 vdd.t182 sky130_fd_pr__pfet_01v8_lvt ad=3.51 pd=18.78 as=1.485 ps=9.33 w=9 l=0.5
X89 vdd.t158 a_n5644_8799.t49 CSoutput.t50 vdd.t150 sky130_fd_pr__pfet_01v8_lvt ad=3.12 pd=16.78 as=1.32 ps=8.33 w=8 l=0.5
X90 a_n5644_8799.t7 a_n1996_n452.t48 a_n1986_8322.t13 vdd.t185 sky130_fd_pr__pfet_01v8_lvt ad=1.485 pd=9.33 as=1.485 ps=9.33 w=9 l=0.5
X91 CSoutput.t108 commonsourceibias.t78 gnd.t311 gnd.t78 sky130_fd_pr__nfet_01v8 ad=1.155 pd=7.33 as=1.155 ps=7.33 w=7 l=1
X92 vdd.t157 a_n5644_8799.t50 CSoutput.t49 vdd.t152 sky130_fd_pr__pfet_01v8_lvt ad=1.32 pd=8.33 as=1.32 ps=8.33 w=8 l=0.5
X93 a_n1996_n452.t27 minus.t10 a_n2903_n3924.t6 gnd.t132 sky130_fd_pr__nfet_01v8 ad=1.155 pd=7.33 as=1.155 ps=7.33 w=7 l=0.7
X94 CSoutput.t24 commonsourceibias.t79 gnd.t81 gnd.t76 sky130_fd_pr__nfet_01v8 ad=1.155 pd=7.33 as=1.155 ps=7.33 w=7 l=1
X95 CSoutput.t111 commonsourceibias.t80 gnd.t319 gnd.t27 sky130_fd_pr__nfet_01v8 ad=1.155 pd=7.33 as=1.155 ps=7.33 w=7 l=1
X96 gnd.t41 commonsourceibias.t81 CSoutput.t10 gnd.t29 sky130_fd_pr__nfet_01v8 ad=2.73 pd=14.78 as=1.155 ps=7.33 w=7 l=1
X97 commonsourceibias.t41 commonsourceibias.t40 gnd.t93 gnd.t92 sky130_fd_pr__nfet_01v8 ad=1.155 pd=7.33 as=1.155 ps=7.33 w=7 l=1
X98 vdd.t87 vdd.t85 vdd.t86 vdd.t39 sky130_fd_pr__pfet_01v8_lvt ad=3.12 pd=16.78 as=0 ps=0 w=8 l=0.5
X99 CSoutput.t82 commonsourceibias.t82 gnd.t134 gnd.t14 sky130_fd_pr__nfet_01v8 ad=1.155 pd=7.33 as=1.155 ps=7.33 w=7 l=1
X100 a_n2903_n3924.t1 minus.t11 a_n1996_n452.t25 gnd.t19 sky130_fd_pr__nfet_01v8 ad=1.155 pd=7.33 as=1.155 ps=7.33 w=7 l=0.7
X101 CSoutput.t120 a_n1986_8322.t2 sky130_fd_pr__cap_mim_m3_1 l=12 w=12
X102 vdd.t156 a_n5644_8799.t51 CSoutput.t31 vdd.t141 sky130_fd_pr__pfet_01v8_lvt ad=1.32 pd=8.33 as=1.32 ps=8.33 w=8 l=0.5
X103 vdd.t84 vdd.t82 vdd.t83 vdd.t68 sky130_fd_pr__pfet_01v8_lvt ad=3.51 pd=18.78 as=0 ps=0 w=9 l=0.5
X104 vdd.t81 vdd.t78 vdd.t80 vdd.t79 sky130_fd_pr__pfet_01v8_lvt ad=3.51 pd=18.78 as=0 ps=0 w=9 l=0.5
X105 gnd.t149 commonsourceibias.t83 CSoutput.t85 gnd.t0 sky130_fd_pr__nfet_01v8 ad=1.155 pd=7.33 as=1.155 ps=7.33 w=7 l=1
X106 gnd.t267 gnd.t265 gnd.t266 gnd.t211 sky130_fd_pr__nfet_01v8 ad=2.73 pd=14.78 as=0 ps=0 w=7 l=0.7
X107 output.t18 outputibias.t11 gnd.t103 gnd.t102 sky130_fd_pr__nfet_01v8 ad=2.34 pd=12.78 as=2.34 ps=12.78 w=6 l=2
X108 a_n2903_n3924.t4 diffpairibias.t18 gnd.t73 gnd.t72 sky130_fd_pr__nfet_01v8 ad=2.73 pd=14.78 as=2.73 ps=14.78 w=7 l=1
X109 vdd.t77 vdd.t74 vdd.t76 vdd.t75 sky130_fd_pr__pfet_01v8_lvt ad=3.51 pd=18.78 as=0 ps=0 w=9 l=0.5
X110 a_n2903_n3924.t0 minus.t12 a_n1996_n452.t24 gnd.t18 sky130_fd_pr__nfet_01v8 ad=1.155 pd=7.33 as=1.155 ps=7.33 w=7 l=0.7
X111 CSoutput.t121 a_n1986_8322.t2 sky130_fd_pr__cap_mim_m3_1 l=12 w=12
X112 commonsourceibias.t39 commonsourceibias.t38 gnd.t84 gnd.t27 sky130_fd_pr__nfet_01v8 ad=1.155 pd=7.33 as=1.155 ps=7.33 w=7 l=1
X113 vdd.t191 a_n1996_n452.t49 a_n1986_8322.t16 vdd.t190 sky130_fd_pr__pfet_01v8_lvt ad=1.485 pd=9.33 as=1.485 ps=9.33 w=9 l=0.5
X114 vdd.t73 vdd.t71 vdd.t72 vdd.t64 sky130_fd_pr__pfet_01v8_lvt ad=3.51 pd=18.78 as=0 ps=0 w=9 l=0.5
X115 a_n1996_n452.t29 minus.t13 a_n2903_n3924.t9 gnd.t156 sky130_fd_pr__nfet_01v8 ad=1.155 pd=7.33 as=2.73 ps=14.78 w=7 l=0.7
X116 CSoutput.t30 a_n5644_8799.t52 vdd.t155 vdd.t154 sky130_fd_pr__pfet_01v8_lvt ad=1.32 pd=8.33 as=1.32 ps=8.33 w=8 l=0.5
X117 a_n1986_8322.t17 a_n1996_n452.t50 vdd.t193 vdd.t192 sky130_fd_pr__pfet_01v8_lvt ad=1.485 pd=9.33 as=1.485 ps=9.33 w=9 l=0.5
X118 a_n2903_n3924.t39 plus.t10 a_n5644_8799.t23 gnd.t165 sky130_fd_pr__nfet_01v8 ad=1.155 pd=7.33 as=1.155 ps=7.33 w=7 l=0.7
X119 a_n2903_n3924.t28 plus.t11 a_n5644_8799.t22 gnd.t155 sky130_fd_pr__nfet_01v8 ad=1.155 pd=7.33 as=1.155 ps=7.33 w=7 l=0.7
X120 vdd.t153 a_n5644_8799.t53 CSoutput.t35 vdd.t152 sky130_fd_pr__pfet_01v8_lvt ad=1.32 pd=8.33 as=1.32 ps=8.33 w=8 l=0.5
X121 gnd.t112 commonsourceibias.t36 commonsourceibias.t37 gnd.t36 sky130_fd_pr__nfet_01v8 ad=1.155 pd=7.33 as=1.155 ps=7.33 w=7 l=1
X122 gnd.t151 commonsourceibias.t84 CSoutput.t86 gnd.t150 sky130_fd_pr__nfet_01v8 ad=1.155 pd=7.33 as=1.155 ps=7.33 w=7 l=1
X123 vdd.t2 a_n1996_n452.t51 a_n1808_13878.t18 vdd.t1 sky130_fd_pr__pfet_01v8_lvt ad=1.485 pd=9.33 as=1.485 ps=9.33 w=9 l=0.5
X124 a_n5644_8799.t21 plus.t12 a_n2903_n3924.t40 gnd.t164 sky130_fd_pr__nfet_01v8 ad=1.155 pd=7.33 as=1.155 ps=7.33 w=7 l=0.7
X125 gnd.t153 commonsourceibias.t85 CSoutput.t88 gnd.t66 sky130_fd_pr__nfet_01v8 ad=1.155 pd=7.33 as=1.155 ps=7.33 w=7 l=1
X126 a_n5644_8799.t20 plus.t13 a_n2903_n3924.t29 gnd.t174 sky130_fd_pr__nfet_01v8 ad=1.155 pd=7.33 as=2.73 ps=14.78 w=7 l=0.7
X127 gnd.t287 commonsourceibias.t86 CSoutput.t94 gnd.t4 sky130_fd_pr__nfet_01v8 ad=1.155 pd=7.33 as=1.155 ps=7.33 w=7 l=1
X128 commonsourceibias.t35 commonsourceibias.t34 gnd.t135 gnd.t42 sky130_fd_pr__nfet_01v8 ad=1.155 pd=7.33 as=1.155 ps=7.33 w=7 l=1
X129 vdd.t70 vdd.t67 vdd.t69 vdd.t68 sky130_fd_pr__pfet_01v8_lvt ad=3.51 pd=18.78 as=0 ps=0 w=9 l=0.5
X130 a_n1996_n452.t36 minus.t14 a_n2903_n3924.t16 gnd.t163 sky130_fd_pr__nfet_01v8 ad=1.155 pd=7.33 as=1.155 ps=7.33 w=7 l=0.7
X131 vdd.t14 CSoutput.t122 output.t10 gnd.t71 sky130_fd_pr__nfet_01v8_lvt ad=0.825 pd=5.33 as=0.825 ps=5.33 w=5 l=1
X132 diffpairibias.t11 diffpairibias.t10 gnd.t111 gnd.t110 sky130_fd_pr__nfet_01v8 ad=2.73 pd=14.78 as=2.73 ps=14.78 w=7 l=1
X133 vdd.t66 vdd.t63 vdd.t65 vdd.t64 sky130_fd_pr__pfet_01v8_lvt ad=3.51 pd=18.78 as=0 ps=0 w=9 l=0.5
X134 vdd.t151 a_n5644_8799.t54 CSoutput.t34 vdd.t150 sky130_fd_pr__pfet_01v8_lvt ad=3.12 pd=16.78 as=1.32 ps=8.33 w=8 l=0.5
X135 gnd.t3 commonsourceibias.t87 CSoutput.t0 gnd.t2 sky130_fd_pr__nfet_01v8 ad=1.155 pd=7.33 as=1.155 ps=7.33 w=7 l=1
X136 gnd.t264 gnd.t261 gnd.t263 gnd.t262 sky130_fd_pr__nfet_01v8 ad=2.34 pd=12.78 as=0 ps=0 w=6 l=2
X137 gnd.t260 gnd.t258 minus.t4 gnd.t259 sky130_fd_pr__nfet_01v8 ad=0.165 pd=1.33 as=0.39 ps=2.78 w=1 l=0.5
X138 a_n5644_8799.t29 a_n1996_n452.t52 a_n1986_8322.t18 vdd.t186 sky130_fd_pr__pfet_01v8_lvt ad=1.485 pd=9.33 as=1.485 ps=9.33 w=9 l=0.5
X139 a_n1986_8322.t12 a_n1996_n452.t53 vdd.t184 vdd.t183 sky130_fd_pr__pfet_01v8_lvt ad=3.51 pd=18.78 as=1.485 ps=9.33 w=9 l=0.5
X140 vdd.t62 vdd.t59 vdd.t61 vdd.t60 sky130_fd_pr__pfet_01v8_lvt ad=3.51 pd=18.78 as=0 ps=0 w=9 l=0.5
X141 CSoutput.t16 commonsourceibias.t88 gnd.t55 gnd.t39 sky130_fd_pr__nfet_01v8 ad=1.155 pd=7.33 as=2.73 ps=14.78 w=7 l=1
X142 gnd.t24 commonsourceibias.t89 CSoutput.t3 gnd.t23 sky130_fd_pr__nfet_01v8 ad=1.155 pd=7.33 as=1.155 ps=7.33 w=7 l=1
X143 a_n2903_n3924.t11 minus.t15 a_n1996_n452.t31 gnd.t158 sky130_fd_pr__nfet_01v8 ad=1.155 pd=7.33 as=1.155 ps=7.33 w=7 l=0.7
X144 a_n1996_n452.t5 a_n1996_n452.t4 a_n1808_13878.t4 vdd.t5 sky130_fd_pr__pfet_01v8_lvt ad=1.485 pd=9.33 as=1.485 ps=9.33 w=9 l=0.5
X145 commonsourceibias.t33 commonsourceibias.t32 gnd.t40 gnd.t39 sky130_fd_pr__nfet_01v8 ad=1.155 pd=7.33 as=2.73 ps=14.78 w=7 l=1
X146 a_n5644_8799.t1 a_n1996_n452.t54 a_n1986_8322.t1 vdd.t6 sky130_fd_pr__pfet_01v8_lvt ad=1.485 pd=9.33 as=1.485 ps=9.33 w=9 l=0.5
X147 CSoutput.t23 commonsourceibias.t90 gnd.t80 gnd.t21 sky130_fd_pr__nfet_01v8 ad=1.155 pd=7.33 as=1.155 ps=7.33 w=7 l=1
X148 a_n1808_13878.t3 a_n1996_n452.t20 a_n1996_n452.t21 vdd.t185 sky130_fd_pr__pfet_01v8_lvt ad=1.485 pd=9.33 as=1.485 ps=9.33 w=9 l=0.5
X149 vdd.t181 a_n1996_n452.t55 a_n1986_8322.t10 vdd.t180 sky130_fd_pr__pfet_01v8_lvt ad=1.485 pd=9.33 as=3.51 ps=18.78 w=9 l=0.5
X150 gnd.t257 gnd.t255 minus.t3 gnd.t256 sky130_fd_pr__nfet_01v8 ad=0.165 pd=1.33 as=0.165 ps=1.33 w=1 l=0.5
X151 a_n2903_n3924.t25 plus.t14 a_n5644_8799.t19 gnd.t20 sky130_fd_pr__nfet_01v8 ad=2.73 pd=14.78 as=1.155 ps=7.33 w=7 l=0.7
X152 vdd.t58 vdd.t56 vdd.t57 vdd.t50 sky130_fd_pr__pfet_01v8_lvt ad=3.12 pd=16.78 as=0 ps=0 w=8 l=0.5
X153 gnd.t254 gnd.t251 gnd.t253 gnd.t252 sky130_fd_pr__nfet_01v8 ad=2.73 pd=14.78 as=0 ps=0 w=7 l=1
X154 a_n2903_n3924.t47 diffpairibias.t19 gnd.t316 gnd.t315 sky130_fd_pr__nfet_01v8 ad=2.73 pd=14.78 as=2.73 ps=14.78 w=7 l=1
X155 CSoutput.t110 commonsourceibias.t91 gnd.t314 gnd.t76 sky130_fd_pr__nfet_01v8 ad=1.155 pd=7.33 as=1.155 ps=7.33 w=7 l=1
X156 CSoutput.t46 a_n5644_8799.t55 vdd.t149 vdd.t144 sky130_fd_pr__pfet_01v8_lvt ad=1.32 pd=8.33 as=1.32 ps=8.33 w=8 l=0.5
X157 CSoutput.t4 commonsourceibias.t92 gnd.t28 gnd.t27 sky130_fd_pr__nfet_01v8 ad=1.155 pd=7.33 as=1.155 ps=7.33 w=7 l=1
X158 CSoutput.t12 commonsourceibias.t93 gnd.t45 gnd.t44 sky130_fd_pr__nfet_01v8 ad=1.155 pd=7.33 as=1.155 ps=7.33 w=7 l=1
X159 a_n2903_n3924.t3 diffpairibias.t20 gnd.t70 gnd.t69 sky130_fd_pr__nfet_01v8 ad=2.73 pd=14.78 as=2.73 ps=14.78 w=7 l=1
X160 vdd.t148 a_n5644_8799.t56 CSoutput.t45 vdd.t115 sky130_fd_pr__pfet_01v8_lvt ad=3.12 pd=16.78 as=1.32 ps=8.33 w=8 l=0.5
X161 gnd.t30 commonsourceibias.t94 CSoutput.t5 gnd.t29 sky130_fd_pr__nfet_01v8 ad=2.73 pd=14.78 as=1.155 ps=7.33 w=7 l=1
X162 a_n5644_8799.t18 plus.t15 a_n2903_n3924.t30 gnd.t168 sky130_fd_pr__nfet_01v8 ad=1.155 pd=7.33 as=1.155 ps=7.33 w=7 l=0.7
X163 gnd.t294 commonsourceibias.t95 CSoutput.t101 gnd.t57 sky130_fd_pr__nfet_01v8 ad=2.73 pd=14.78 as=1.155 ps=7.33 w=7 l=1
X164 CSoutput.t97 commonsourceibias.t96 gnd.t290 gnd.t53 sky130_fd_pr__nfet_01v8 ad=1.155 pd=7.33 as=1.155 ps=7.33 w=7 l=1
X165 commonsourceibias.t31 commonsourceibias.t30 gnd.t77 gnd.t76 sky130_fd_pr__nfet_01v8 ad=1.155 pd=7.33 as=1.155 ps=7.33 w=7 l=1
X166 vdd.t12 CSoutput.t123 output.t9 gnd.t6 sky130_fd_pr__nfet_01v8_lvt ad=0.825 pd=5.33 as=0.825 ps=5.33 w=5 l=1
X167 vdd.t147 a_n5644_8799.t57 CSoutput.t44 vdd.t130 sky130_fd_pr__pfet_01v8_lvt ad=1.32 pd=8.33 as=1.32 ps=8.33 w=8 l=0.5
X168 gnd.t33 commonsourceibias.t97 CSoutput.t7 gnd.t0 sky130_fd_pr__nfet_01v8 ad=1.155 pd=7.33 as=1.155 ps=7.33 w=7 l=1
X169 gnd.t250 gnd.t247 gnd.t249 gnd.t248 sky130_fd_pr__nfet_01v8_lvt ad=1.95 pd=10.78 as=0 ps=0 w=5 l=1
X170 CSoutput.t6 commonsourceibias.t98 gnd.t32 gnd.t31 sky130_fd_pr__nfet_01v8 ad=1.155 pd=7.33 as=1.155 ps=7.33 w=7 l=1
X171 gnd.t246 gnd.t244 gnd.t245 gnd.t203 sky130_fd_pr__nfet_01v8 ad=2.73 pd=14.78 as=0 ps=0 w=7 l=1
X172 diffpairibias.t9 diffpairibias.t8 gnd.t114 gnd.t113 sky130_fd_pr__nfet_01v8 ad=2.73 pd=14.78 as=2.73 ps=14.78 w=7 l=1
X173 CSoutput.t37 a_n5644_8799.t58 vdd.t146 vdd.t134 sky130_fd_pr__pfet_01v8_lvt ad=1.32 pd=8.33 as=1.32 ps=8.33 w=8 l=0.5
X174 CSoutput.t103 commonsourceibias.t99 gnd.t296 gnd.t61 sky130_fd_pr__nfet_01v8 ad=1.155 pd=7.33 as=2.73 ps=14.78 w=7 l=1
X175 gnd.t35 commonsourceibias.t100 CSoutput.t8 gnd.t34 sky130_fd_pr__nfet_01v8 ad=1.155 pd=7.33 as=1.155 ps=7.33 w=7 l=1
X176 vdd.t55 vdd.t53 vdd.t54 vdd.t35 sky130_fd_pr__pfet_01v8_lvt ad=3.12 pd=16.78 as=0 ps=0 w=8 l=0.5
X177 a_n1808_13878.t17 a_n1996_n452.t56 vdd.t195 vdd.t194 sky130_fd_pr__pfet_01v8_lvt ad=1.485 pd=9.33 as=1.485 ps=9.33 w=9 l=0.5
X178 vdd.t107 a_n1996_n452.t57 a_n1808_13878.t16 vdd.t106 sky130_fd_pr__pfet_01v8_lvt ad=1.485 pd=9.33 as=1.485 ps=9.33 w=9 l=0.5
X179 gnd.t56 commonsourceibias.t28 commonsourceibias.t29 gnd.t12 sky130_fd_pr__nfet_01v8 ad=1.155 pd=7.33 as=1.155 ps=7.33 w=7 l=1
X180 gnd.t289 commonsourceibias.t101 CSoutput.t96 gnd.t4 sky130_fd_pr__nfet_01v8 ad=1.155 pd=7.33 as=1.155 ps=7.33 w=7 l=1
X181 a_n2903_n3924.t10 minus.t16 a_n1996_n452.t30 gnd.t157 sky130_fd_pr__nfet_01v8 ad=1.155 pd=7.33 as=1.155 ps=7.33 w=7 l=0.7
X182 vdd.t52 vdd.t49 vdd.t51 vdd.t50 sky130_fd_pr__pfet_01v8_lvt ad=3.12 pd=16.78 as=0 ps=0 w=8 l=0.5
X183 gnd.t176 commonsourceibias.t102 CSoutput.t93 gnd.t2 sky130_fd_pr__nfet_01v8 ad=1.155 pd=7.33 as=1.155 ps=7.33 w=7 l=1
X184 a_n1996_n452.t33 minus.t17 a_n2903_n3924.t13 gnd.t160 sky130_fd_pr__nfet_01v8 ad=1.155 pd=7.33 as=1.155 ps=7.33 w=7 l=0.7
X185 CSoutput.t11 commonsourceibias.t103 gnd.t43 gnd.t42 sky130_fd_pr__nfet_01v8 ad=1.155 pd=7.33 as=1.155 ps=7.33 w=7 l=1
X186 diffpairibias.t7 diffpairibias.t6 gnd.t145 gnd.t144 sky130_fd_pr__nfet_01v8 ad=2.73 pd=14.78 as=2.73 ps=14.78 w=7 l=1
X187 CSoutput.t36 a_n5644_8799.t59 vdd.t145 vdd.t144 sky130_fd_pr__pfet_01v8_lvt ad=1.32 pd=8.33 as=1.32 ps=8.33 w=8 l=0.5
X188 plus.t3 gnd.t241 gnd.t243 gnd.t242 sky130_fd_pr__nfet_01v8 ad=0.165 pd=1.33 as=0.165 ps=1.33 w=1 l=0.5
X189 a_n1996_n452.t43 minus.t18 a_n2903_n3924.t23 gnd.t175 sky130_fd_pr__nfet_01v8 ad=1.155 pd=7.33 as=1.155 ps=7.33 w=7 l=0.7
X190 gnd.t129 commonsourceibias.t26 commonsourceibias.t27 gnd.t2 sky130_fd_pr__nfet_01v8 ad=1.155 pd=7.33 as=1.155 ps=7.33 w=7 l=1
X191 output.t8 CSoutput.t124 vdd.t9 gnd.t7 sky130_fd_pr__nfet_01v8_lvt ad=0.825 pd=5.33 as=0.825 ps=5.33 w=5 l=1
X192 vdd.t143 a_n5644_8799.t60 CSoutput.t48 vdd.t115 sky130_fd_pr__pfet_01v8_lvt ad=3.12 pd=16.78 as=1.32 ps=8.33 w=8 l=0.5
X193 CSoutput.t92 commonsourceibias.t104 gnd.t171 gnd.t63 sky130_fd_pr__nfet_01v8 ad=1.155 pd=7.33 as=1.155 ps=7.33 w=7 l=1
X194 a_n5644_8799.t17 plus.t16 a_n2903_n3924.t38 gnd.t167 sky130_fd_pr__nfet_01v8 ad=1.155 pd=7.33 as=1.155 ps=7.33 w=7 l=0.7
X195 gnd.t240 gnd.t238 gnd.t239 gnd.t203 sky130_fd_pr__nfet_01v8 ad=2.73 pd=14.78 as=0 ps=0 w=7 l=1
X196 a_n1986_8322.t8 a_n1996_n452.t58 a_n5644_8799.t5 vdd.t112 sky130_fd_pr__pfet_01v8_lvt ad=1.485 pd=9.33 as=1.485 ps=9.33 w=9 l=0.5
X197 gnd.t237 gnd.t235 minus.t2 gnd.t236 sky130_fd_pr__nfet_01v8 ad=0.39 pd=2.78 as=0.165 ps=1.33 w=1 l=0.5
X198 CSoutput.t90 commonsourceibias.t105 gnd.t169 gnd.t21 sky130_fd_pr__nfet_01v8 ad=1.155 pd=7.33 as=1.155 ps=7.33 w=7 l=1
X199 a_n2903_n3924.t19 minus.t19 a_n1996_n452.t39 gnd.t166 sky130_fd_pr__nfet_01v8 ad=1.155 pd=7.33 as=1.155 ps=7.33 w=7 l=0.7
X200 vdd.t142 a_n5644_8799.t61 CSoutput.t47 vdd.t141 sky130_fd_pr__pfet_01v8_lvt ad=1.32 pd=8.33 as=1.32 ps=8.33 w=8 l=0.5
X201 CSoutput.t40 a_n5644_8799.t62 vdd.t140 vdd.t121 sky130_fd_pr__pfet_01v8_lvt ad=1.32 pd=8.33 as=1.32 ps=8.33 w=8 l=0.5
X202 vdd.t139 a_n5644_8799.t63 CSoutput.t39 vdd.t130 sky130_fd_pr__pfet_01v8_lvt ad=1.32 pd=8.33 as=1.32 ps=8.33 w=8 l=0.5
X203 vdd.t24 a_n1996_n452.t59 a_n1986_8322.t3 vdd.t23 sky130_fd_pr__pfet_01v8_lvt ad=1.485 pd=9.33 as=3.51 ps=18.78 w=9 l=0.5
X204 gnd.t286 commonsourceibias.t24 commonsourceibias.t25 gnd.t9 sky130_fd_pr__nfet_01v8 ad=1.155 pd=7.33 as=1.155 ps=7.33 w=7 l=1
X205 a_n1808_13878.t15 a_n1996_n452.t60 vdd.t26 vdd.t25 sky130_fd_pr__pfet_01v8_lvt ad=3.51 pd=18.78 as=1.485 ps=9.33 w=9 l=0.5
X206 minus.t1 gnd.t232 gnd.t234 gnd.t233 sky130_fd_pr__nfet_01v8 ad=0.165 pd=1.33 as=0.165 ps=1.33 w=1 l=0.5
X207 gnd.t231 gnd.t228 gnd.t230 gnd.t229 sky130_fd_pr__nfet_01v8 ad=2.73 pd=14.78 as=0 ps=0 w=7 l=1
X208 CSoutput.t107 commonsourceibias.t106 gnd.t303 gnd.t92 sky130_fd_pr__nfet_01v8 ad=1.155 pd=7.33 as=1.155 ps=7.33 w=7 l=1
X209 gnd.t227 gnd.t224 gnd.t226 gnd.t225 sky130_fd_pr__nfet_01v8 ad=2.73 pd=14.78 as=0 ps=0 w=7 l=1
X210 a_n2903_n3924.t46 diffpairibias.t21 gnd.t310 gnd.t309 sky130_fd_pr__nfet_01v8 ad=2.73 pd=14.78 as=2.73 ps=14.78 w=7 l=1
X211 CSoutput.t38 a_n5644_8799.t64 vdd.t138 vdd.t134 sky130_fd_pr__pfet_01v8_lvt ad=1.32 pd=8.33 as=1.32 ps=8.33 w=8 l=0.5
X212 output.t7 CSoutput.t125 vdd.t7 gnd.t8 sky130_fd_pr__nfet_01v8_lvt ad=0.825 pd=5.33 as=0.825 ps=5.33 w=5 l=1
X213 CSoutput.t87 commonsourceibias.t107 gnd.t152 gnd.t44 sky130_fd_pr__nfet_01v8 ad=1.155 pd=7.33 as=1.155 ps=7.33 w=7 l=1
X214 CSoutput.t56 a_n5644_8799.t65 vdd.t137 vdd.t132 sky130_fd_pr__pfet_01v8_lvt ad=1.32 pd=8.33 as=3.12 ps=16.78 w=8 l=0.5
X215 gnd.t58 commonsourceibias.t108 CSoutput.t17 gnd.t57 sky130_fd_pr__nfet_01v8 ad=2.73 pd=14.78 as=1.155 ps=7.33 w=7 l=1
X216 vdd.t48 vdd.t46 vdd.t47 vdd.t35 sky130_fd_pr__pfet_01v8_lvt ad=3.12 pd=16.78 as=0 ps=0 w=8 l=0.5
X217 CSoutput.t80 commonsourceibias.t109 gnd.t128 gnd.t53 sky130_fd_pr__nfet_01v8 ad=1.155 pd=7.33 as=1.155 ps=7.33 w=7 l=1
X218 a_n5644_8799.t16 plus.t17 a_n2903_n3924.t37 gnd.t162 sky130_fd_pr__nfet_01v8 ad=1.155 pd=7.33 as=1.155 ps=7.33 w=7 l=0.7
X219 gnd.t223 gnd.t220 gnd.t222 gnd.t221 sky130_fd_pr__nfet_01v8 ad=2.34 pd=12.78 as=0 ps=0 w=6 l=2
X220 gnd.t1 commonsourceibias.t22 commonsourceibias.t23 gnd.t0 sky130_fd_pr__nfet_01v8 ad=1.155 pd=7.33 as=1.155 ps=7.33 w=7 l=1
X221 a_n1986_8322.t4 a_n1996_n452.t61 a_n5644_8799.t2 vdd.t5 sky130_fd_pr__pfet_01v8_lvt ad=1.485 pd=9.33 as=1.485 ps=9.33 w=9 l=0.5
X222 vdd.t104 a_n1996_n452.t62 a_n1986_8322.t5 vdd.t103 sky130_fd_pr__pfet_01v8_lvt ad=1.485 pd=9.33 as=1.485 ps=9.33 w=9 l=0.5
X223 vdd.t136 a_n5644_8799.t66 CSoutput.t55 vdd.t123 sky130_fd_pr__pfet_01v8_lvt ad=1.32 pd=8.33 as=1.32 ps=8.33 w=8 l=0.5
X224 CSoutput.t54 a_n5644_8799.t67 vdd.t135 vdd.t134 sky130_fd_pr__pfet_01v8_lvt ad=1.32 pd=8.33 as=1.32 ps=8.33 w=8 l=0.5
X225 gnd.t10 commonsourceibias.t110 CSoutput.t1 gnd.t9 sky130_fd_pr__nfet_01v8 ad=1.155 pd=7.33 as=1.155 ps=7.33 w=7 l=1
X226 a_n2903_n3924.t41 plus.t18 a_n5644_8799.t15 gnd.t161 sky130_fd_pr__nfet_01v8 ad=2.73 pd=14.78 as=1.155 ps=7.33 w=7 l=0.7
X227 vdd.t10 CSoutput.t126 output.t6 gnd.t123 sky130_fd_pr__nfet_01v8_lvt ad=0.825 pd=5.33 as=0.825 ps=5.33 w=5 l=1
X228 gnd.t219 gnd.t217 gnd.t218 gnd.t189 sky130_fd_pr__nfet_01v8 ad=2.73 pd=14.78 as=0 ps=0 w=7 l=1
X229 output.t5 CSoutput.t127 vdd.t11 gnd.t124 sky130_fd_pr__nfet_01v8_lvt ad=0.825 pd=5.33 as=0.825 ps=5.33 w=5 l=1
X230 outputibias.t7 outputibias.t6 gnd.t17 gnd.t16 sky130_fd_pr__nfet_01v8 ad=2.34 pd=12.78 as=2.34 ps=12.78 w=6 l=2
X231 gnd.t216 gnd.t214 gnd.t215 gnd.t189 sky130_fd_pr__nfet_01v8 ad=2.73 pd=14.78 as=0 ps=0 w=7 l=1
X232 CSoutput.t91 commonsourceibias.t111 gnd.t170 gnd.t31 sky130_fd_pr__nfet_01v8 ad=1.155 pd=7.33 as=1.155 ps=7.33 w=7 l=1
X233 diffpairibias.t5 diffpairibias.t4 gnd.t318 gnd.t317 sky130_fd_pr__nfet_01v8 ad=2.73 pd=14.78 as=2.73 ps=14.78 w=7 l=1
X234 vdd.t45 vdd.t42 vdd.t44 vdd.t43 sky130_fd_pr__pfet_01v8_lvt ad=3.51 pd=18.78 as=0 ps=0 w=9 l=0.5
X235 vdd.t41 vdd.t38 vdd.t40 vdd.t39 sky130_fd_pr__pfet_01v8_lvt ad=3.12 pd=16.78 as=0 ps=0 w=8 l=0.5
X236 outputibias.t5 outputibias.t4 gnd.t86 gnd.t85 sky130_fd_pr__nfet_01v8 ad=2.34 pd=12.78 as=2.34 ps=12.78 w=6 l=2
X237 a_n1808_13878.t2 a_n1996_n452.t16 a_n1996_n452.t17 vdd.t108 sky130_fd_pr__pfet_01v8_lvt ad=1.485 pd=9.33 as=1.485 ps=9.33 w=9 l=0.5
X238 gnd.t47 commonsourceibias.t112 CSoutput.t14 gnd.t34 sky130_fd_pr__nfet_01v8 ad=1.155 pd=7.33 as=1.155 ps=7.33 w=7 l=1
X239 CSoutput.t19 commonsourceibias.t113 gnd.t62 gnd.t61 sky130_fd_pr__nfet_01v8 ad=1.155 pd=7.33 as=2.73 ps=14.78 w=7 l=1
X240 a_n1986_8322.t7 a_n1996_n452.t63 a_n5644_8799.t4 vdd.t109 sky130_fd_pr__pfet_01v8_lvt ad=1.485 pd=9.33 as=1.485 ps=9.33 w=9 l=0.5
X241 outputibias.t3 outputibias.t2 gnd.t141 gnd.t140 sky130_fd_pr__nfet_01v8 ad=2.34 pd=12.78 as=2.34 ps=12.78 w=6 l=2
X242 gnd.t13 commonsourceibias.t114 CSoutput.t2 gnd.t12 sky130_fd_pr__nfet_01v8 ad=1.155 pd=7.33 as=1.155 ps=7.33 w=7 l=1
X243 outputibias.t1 outputibias.t0 gnd.t143 gnd.t142 sky130_fd_pr__nfet_01v8 ad=2.34 pd=12.78 as=2.34 ps=12.78 w=6 l=2
X244 gnd.t5 commonsourceibias.t20 commonsourceibias.t21 gnd.t4 sky130_fd_pr__nfet_01v8 ad=1.155 pd=7.33 as=1.155 ps=7.33 w=7 l=1
X245 output.t4 CSoutput.t128 vdd.t19 gnd.t125 sky130_fd_pr__nfet_01v8_lvt ad=0.825 pd=5.33 as=0.825 ps=5.33 w=5 l=1
X246 CSoutput.t79 commonsourceibias.t115 gnd.t127 gnd.t42 sky130_fd_pr__nfet_01v8 ad=1.155 pd=7.33 as=1.155 ps=7.33 w=7 l=1
X247 CSoutput.t33 a_n5644_8799.t68 vdd.t133 vdd.t132 sky130_fd_pr__pfet_01v8_lvt ad=1.32 pd=8.33 as=3.12 ps=16.78 w=8 l=0.5