* NGSPICE file created from opamp523.ext - technology: sky130A

.subckt opamp523 gnd CSoutput output vdd plus minus commonsourceibias outputibias
+ diffpairibias
X0 gnd.t341 commonsourceibias.t80 CSoutput.t139 gnd.t194 sky130_fd_pr__nfet_01v8 ad=1.155 pd=7.33 as=1.155 ps=7.33 w=7 l=1
X1 a_n7636_8799.t27 plus.t5 a_n2903_n3924.t30 gnd.t18 sky130_fd_pr__nfet_01v8 ad=1.155 pd=7.33 as=1.155 ps=7.33 w=7 l=0.7
X2 CSoutput.t59 a_n7636_8799.t32 vdd.t165 vdd.t104 sky130_fd_pr__pfet_01v8 ad=1.32 pd=8.33 as=1.32 ps=8.33 w=8 l=0.5
X3 a_n1808_13878.t11 a_n1996_n452.t7 a_n1996_n452.t8 vdd.t170 sky130_fd_pr__pfet_01v8 ad=1.485 pd=9.33 as=1.485 ps=9.33 w=9 l=0.5
X4 commonsourceibias.t39 commonsourceibias.t38 gnd.t340 gnd.t305 sky130_fd_pr__nfet_01v8 ad=1.155 pd=7.33 as=1.155 ps=7.33 w=7 l=1
X5 a_n1808_13878.t19 a_n1996_n452.t44 vdd.t274 vdd.t273 sky130_fd_pr__pfet_01v8 ad=1.485 pd=9.33 as=1.485 ps=9.33 w=9 l=0.5
X6 vdd.t164 a_n7636_8799.t33 CSoutput.t87 vdd.t99 sky130_fd_pr__pfet_01v8 ad=1.32 pd=8.33 as=1.32 ps=8.33 w=8 l=0.5
X7 CSoutput.t74 a_n7636_8799.t34 vdd.t163 vdd.t18 sky130_fd_pr__pfet_01v8 ad=1.32 pd=8.33 as=1.32 ps=8.33 w=8 l=0.5
X8 outputibias.t7 outputibias.t6 gnd.t38 gnd.t37 sky130_fd_pr__nfet_01v8 ad=2.34 pd=12.78 as=2.34 ps=12.78 w=6 l=2
X9 gnd.t178 gnd.t176 gnd.t177 gnd.t86 sky130_fd_pr__nfet_01v8 ad=2.73 pd=14.78 as=0 ps=0 w=7 l=1
X10 gnd.t175 gnd.t173 plus.t4 gnd.t174 sky130_fd_pr__nfet_01v8 ad=0.165 pd=1.33 as=0.165 ps=1.33 w=1 l=0.5
X11 CSoutput.t76 a_n7636_8799.t35 vdd.t162 vdd.t20 sky130_fd_pr__pfet_01v8 ad=1.32 pd=8.33 as=1.32 ps=8.33 w=8 l=0.5
X12 a_n2903_n3924.t45 plus.t6 a_n7636_8799.t26 gnd.t66 sky130_fd_pr__nfet_01v8 ad=1.155 pd=7.33 as=1.155 ps=7.33 w=7 l=0.7
X13 gnd.t339 commonsourceibias.t81 CSoutput.t115 gnd.t299 sky130_fd_pr__nfet_01v8 ad=1.155 pd=7.33 as=1.155 ps=7.33 w=7 l=1
X14 CSoutput.t200 a_n1986_8322.t21 sky130_fd_pr__cap_mim_m3_1 l=12 w=12
X15 gnd.t338 commonsourceibias.t82 CSoutput.t114 gnd.t220 sky130_fd_pr__nfet_01v8 ad=1.155 pd=7.33 as=1.155 ps=7.33 w=7 l=1
X16 gnd.t337 commonsourceibias.t10 commonsourceibias.t11 gnd.t218 sky130_fd_pr__nfet_01v8 ad=1.155 pd=7.33 as=1.155 ps=7.33 w=7 l=1
X17 gnd.t336 commonsourceibias.t83 CSoutput.t113 gnd.t218 sky130_fd_pr__nfet_01v8 ad=1.155 pd=7.33 as=1.155 ps=7.33 w=7 l=1
X18 vdd.t271 vdd.t269 vdd.t270 vdd.t223 sky130_fd_pr__pfet_01v8 ad=3.12 pd=16.78 as=0 ps=0 w=8 l=0.5
X19 a_n2903_n3924.t2 minus.t5 a_n1996_n452.t2 gnd.t0 sky130_fd_pr__nfet_01v8 ad=2.73 pd=14.78 as=1.155 ps=7.33 w=7 l=0.7
X20 a_n1986_8322.t11 a_n1996_n452.t45 a_n7636_8799.t2 vdd.t169 sky130_fd_pr__pfet_01v8 ad=1.485 pd=9.33 as=1.485 ps=9.33 w=9 l=0.5
X21 gnd.t335 commonsourceibias.t84 CSoutput.t112 gnd.t214 sky130_fd_pr__nfet_01v8 ad=1.155 pd=7.33 as=1.155 ps=7.33 w=7 l=1
X22 output.t15 CSoutput.t201 vdd.t185 gnd.t55 sky130_fd_pr__nfet_01v8 ad=0.825 pd=5.33 as=0.825 ps=5.33 w=5 l=1
X23 CSoutput.t191 a_n7636_8799.t36 vdd.t161 vdd.t63 sky130_fd_pr__pfet_01v8 ad=1.32 pd=8.33 as=1.32 ps=8.33 w=8 l=0.5
X24 outputibias.t5 outputibias.t4 gnd.t27 gnd.t26 sky130_fd_pr__nfet_01v8 ad=2.34 pd=12.78 as=2.34 ps=12.78 w=6 l=2
X25 gnd.t334 commonsourceibias.t85 CSoutput.t111 gnd.t231 sky130_fd_pr__nfet_01v8 ad=1.155 pd=7.33 as=1.155 ps=7.33 w=7 l=1
X26 vdd.t160 a_n7636_8799.t37 CSoutput.t78 vdd.t92 sky130_fd_pr__pfet_01v8 ad=1.32 pd=8.33 as=1.32 ps=8.33 w=8 l=0.5
X27 a_n1996_n452.t41 minus.t6 a_n2903_n3924.t25 gnd.t20 sky130_fd_pr__nfet_01v8 ad=1.155 pd=7.33 as=1.155 ps=7.33 w=7 l=0.7
X28 gnd.t333 commonsourceibias.t8 commonsourceibias.t9 gnd.t241 sky130_fd_pr__nfet_01v8 ad=1.155 pd=7.33 as=1.155 ps=7.33 w=7 l=1
X29 vdd.t159 a_n7636_8799.t38 CSoutput.t15 vdd.t119 sky130_fd_pr__pfet_01v8 ad=1.32 pd=8.33 as=1.32 ps=8.33 w=8 l=0.5
X30 a_n1996_n452.t39 minus.t7 a_n2903_n3924.t23 gnd.t179 sky130_fd_pr__nfet_01v8 ad=1.155 pd=7.33 as=1.155 ps=7.33 w=7 l=0.7
X31 CSoutput.t7 a_n7636_8799.t39 vdd.t158 vdd.t65 sky130_fd_pr__pfet_01v8 ad=1.32 pd=8.33 as=1.32 ps=8.33 w=8 l=0.5
X32 vdd.t157 a_n7636_8799.t40 CSoutput.t67 vdd.t116 sky130_fd_pr__pfet_01v8 ad=1.32 pd=8.33 as=1.32 ps=8.33 w=8 l=0.5
X33 vdd.t156 a_n7636_8799.t41 CSoutput.t9 vdd.t143 sky130_fd_pr__pfet_01v8 ad=1.32 pd=8.33 as=1.32 ps=8.33 w=8 l=0.5
X34 a_n7636_8799.t3 a_n1996_n452.t46 a_n1986_8322.t10 vdd.t4 sky130_fd_pr__pfet_01v8 ad=1.485 pd=9.33 as=3.51 ps=18.78 w=9 l=0.5
X35 CSoutput.t42 a_n7636_8799.t42 vdd.t155 vdd.t12 sky130_fd_pr__pfet_01v8 ad=1.32 pd=8.33 as=3.12 ps=16.78 w=8 l=0.5
X36 CSoutput.t110 commonsourceibias.t86 gnd.t332 gnd.t208 sky130_fd_pr__nfet_01v8 ad=1.155 pd=7.33 as=1.155 ps=7.33 w=7 l=1
X37 a_n2903_n3924.t4 minus.t8 a_n1996_n452.t4 gnd.t6 sky130_fd_pr__nfet_01v8 ad=2.73 pd=14.78 as=1.155 ps=7.33 w=7 l=0.7
X38 gnd.t331 commonsourceibias.t6 commonsourceibias.t7 gnd.t295 sky130_fd_pr__nfet_01v8 ad=1.155 pd=7.33 as=1.155 ps=7.33 w=7 l=1
X39 CSoutput.t109 commonsourceibias.t87 gnd.t330 gnd.t203 sky130_fd_pr__nfet_01v8 ad=1.155 pd=7.33 as=1.155 ps=7.33 w=7 l=1
X40 CSoutput.t50 a_n7636_8799.t43 vdd.t154 vdd.t104 sky130_fd_pr__pfet_01v8 ad=1.32 pd=8.33 as=1.32 ps=8.33 w=8 l=0.5
X41 vdd.t186 CSoutput.t202 output.t14 gnd.t54 sky130_fd_pr__nfet_01v8 ad=0.825 pd=5.33 as=0.825 ps=5.33 w=5 l=1
X42 vdd.t268 vdd.t266 vdd.t267 vdd.t201 sky130_fd_pr__pfet_01v8 ad=3.12 pd=16.78 as=0 ps=0 w=8 l=0.5
X43 CSoutput.t106 commonsourceibias.t88 gnd.t327 gnd.t201 sky130_fd_pr__nfet_01v8 ad=1.155 pd=7.33 as=1.155 ps=7.33 w=7 l=1
X44 CSoutput.t108 commonsourceibias.t89 gnd.t329 gnd.t199 sky130_fd_pr__nfet_01v8 ad=1.155 pd=7.33 as=1.155 ps=7.33 w=7 l=1
X45 a_n2903_n3924.t5 diffpairibias.t16 gnd.t9 gnd.t8 sky130_fd_pr__nfet_01v8 ad=2.73 pd=14.78 as=2.73 ps=14.78 w=7 l=1
X46 CSoutput.t90 a_n7636_8799.t44 vdd.t153 vdd.t57 sky130_fd_pr__pfet_01v8 ad=1.32 pd=8.33 as=1.32 ps=8.33 w=8 l=0.5
X47 CSoutput.t107 commonsourceibias.t90 gnd.t328 gnd.t196 sky130_fd_pr__nfet_01v8 ad=1.155 pd=7.33 as=1.155 ps=7.33 w=7 l=1
X48 CSoutput.t44 a_n7636_8799.t45 vdd.t152 vdd.t20 sky130_fd_pr__pfet_01v8 ad=1.32 pd=8.33 as=1.32 ps=8.33 w=8 l=0.5
X49 a_n2903_n3924.t41 plus.t7 a_n7636_8799.t25 gnd.t28 sky130_fd_pr__nfet_01v8 ad=1.155 pd=7.33 as=1.155 ps=7.33 w=7 l=0.7
X50 gnd.t326 commonsourceibias.t4 commonsourceibias.t5 gnd.t253 sky130_fd_pr__nfet_01v8 ad=1.155 pd=7.33 as=1.155 ps=7.33 w=7 l=1
X51 outputibias.t3 outputibias.t2 gnd.t347 gnd.t346 sky130_fd_pr__nfet_01v8 ad=2.34 pd=12.78 as=2.34 ps=12.78 w=6 l=2
X52 output.t13 CSoutput.t203 vdd.t180 gnd.t53 sky130_fd_pr__nfet_01v8 ad=0.825 pd=5.33 as=0.825 ps=5.33 w=5 l=1
X53 a_n1808_13878.t10 a_n1996_n452.t13 a_n1996_n452.t14 vdd.t289 sky130_fd_pr__pfet_01v8 ad=1.485 pd=9.33 as=3.51 ps=18.78 w=9 l=0.5
X54 vdd.t151 a_n7636_8799.t46 CSoutput.t29 vdd.t143 sky130_fd_pr__pfet_01v8 ad=1.32 pd=8.33 as=1.32 ps=8.33 w=8 l=0.5
X55 vdd.t265 vdd.t263 vdd.t264 vdd.t223 sky130_fd_pr__pfet_01v8 ad=3.12 pd=16.78 as=0 ps=0 w=8 l=0.5
X56 CSoutput.t142 commonsourceibias.t91 gnd.t313 gnd.t305 sky130_fd_pr__nfet_01v8 ad=1.155 pd=7.33 as=1.155 ps=7.33 w=7 l=1
X57 CSoutput.t93 a_n7636_8799.t47 vdd.t150 vdd.t97 sky130_fd_pr__pfet_01v8 ad=1.32 pd=8.33 as=1.32 ps=8.33 w=8 l=0.5
X58 a_n1996_n452.t20 a_n1996_n452.t19 a_n1808_13878.t9 vdd.t280 sky130_fd_pr__pfet_01v8 ad=1.485 pd=9.33 as=1.485 ps=9.33 w=9 l=0.5
X59 commonsourceibias.t3 commonsourceibias.t2 gnd.t325 gnd.t278 sky130_fd_pr__nfet_01v8 ad=1.155 pd=7.33 as=2.73 ps=14.78 w=7 l=1
X60 CSoutput.t204 a_n1986_8322.t20 sky130_fd_pr__cap_mim_m3_1 l=12 w=12
X61 a_n7636_8799.t24 plus.t8 a_n2903_n3924.t38 gnd.t1 sky130_fd_pr__nfet_01v8 ad=1.155 pd=7.33 as=1.155 ps=7.33 w=7 l=0.7
X62 CSoutput.t34 a_n7636_8799.t48 vdd.t149 vdd.t63 sky130_fd_pr__pfet_01v8 ad=1.32 pd=8.33 as=1.32 ps=8.33 w=8 l=0.5
X63 vdd.t262 vdd.t260 vdd.t261 vdd.t236 sky130_fd_pr__pfet_01v8 ad=3.51 pd=18.78 as=0 ps=0 w=9 l=0.5
X64 vdd.t148 a_n7636_8799.t49 CSoutput.t178 vdd.t92 sky130_fd_pr__pfet_01v8 ad=1.32 pd=8.33 as=1.32 ps=8.33 w=8 l=0.5
X65 diffpairibias.t15 diffpairibias.t14 gnd.t343 gnd.t342 sky130_fd_pr__nfet_01v8 ad=2.73 pd=14.78 as=2.73 ps=14.78 w=7 l=1
X66 a_n1996_n452.t6 minus.t9 a_n2903_n3924.t7 gnd.t7 sky130_fd_pr__nfet_01v8 ad=1.155 pd=7.33 as=1.155 ps=7.33 w=7 l=0.7
X67 gnd.t172 gnd.t170 gnd.t171 gnd.t86 sky130_fd_pr__nfet_01v8 ad=2.73 pd=14.78 as=0 ps=0 w=7 l=1
X68 CSoutput.t10 a_n7636_8799.t50 vdd.t147 vdd.t101 sky130_fd_pr__pfet_01v8 ad=1.32 pd=8.33 as=1.32 ps=8.33 w=8 l=0.5
X69 vdd.t146 a_n7636_8799.t51 CSoutput.t8 vdd.t30 sky130_fd_pr__pfet_01v8 ad=1.32 pd=8.33 as=1.32 ps=8.33 w=8 l=0.5
X70 vdd.t145 a_n7636_8799.t52 CSoutput.t38 vdd.t116 sky130_fd_pr__pfet_01v8 ad=1.32 pd=8.33 as=1.32 ps=8.33 w=8 l=0.5
X71 vdd.t144 a_n7636_8799.t53 CSoutput.t53 vdd.t143 sky130_fd_pr__pfet_01v8 ad=1.32 pd=8.33 as=1.32 ps=8.33 w=8 l=0.5
X72 vdd.t142 a_n7636_8799.t54 CSoutput.t25 vdd.t89 sky130_fd_pr__pfet_01v8 ad=1.32 pd=8.33 as=1.32 ps=8.33 w=8 l=0.5
X73 gnd.t324 commonsourceibias.t92 CSoutput.t148 gnd.t299 sky130_fd_pr__nfet_01v8 ad=1.155 pd=7.33 as=1.155 ps=7.33 w=7 l=1
X74 plus.t3 gnd.t167 gnd.t169 gnd.t168 sky130_fd_pr__nfet_01v8 ad=0.165 pd=1.33 as=0.165 ps=1.33 w=1 l=0.5
X75 diffpairibias.t13 diffpairibias.t12 gnd.t30 gnd.t29 sky130_fd_pr__nfet_01v8 ad=2.73 pd=14.78 as=2.73 ps=14.78 w=7 l=1
X76 gnd.t323 commonsourceibias.t93 CSoutput.t147 gnd.t182 sky130_fd_pr__nfet_01v8 ad=1.155 pd=7.33 as=1.155 ps=7.33 w=7 l=1
X77 CSoutput.t46 a_n7636_8799.t55 vdd.t141 vdd.t12 sky130_fd_pr__pfet_01v8 ad=1.32 pd=8.33 as=3.12 ps=16.78 w=8 l=0.5
X78 CSoutput.t88 a_n7636_8799.t56 vdd.t140 vdd.t37 sky130_fd_pr__pfet_01v8 ad=1.32 pd=8.33 as=1.32 ps=8.33 w=8 l=0.5
X79 output.t12 CSoutput.t205 vdd.t177 gnd.t52 sky130_fd_pr__nfet_01v8 ad=0.825 pd=5.33 as=0.825 ps=5.33 w=5 l=1
X80 commonsourceibias.t51 commonsourceibias.t50 gnd.t322 gnd.t208 sky130_fd_pr__nfet_01v8 ad=1.155 pd=7.33 as=1.155 ps=7.33 w=7 l=1
X81 gnd.t166 gnd.t164 gnd.t165 gnd.t98 sky130_fd_pr__nfet_01v8 ad=2.73 pd=14.78 as=0 ps=0 w=7 l=0.7
X82 gnd.t321 commonsourceibias.t94 CSoutput.t146 gnd.t295 sky130_fd_pr__nfet_01v8 ad=1.155 pd=7.33 as=1.155 ps=7.33 w=7 l=1
X83 vdd.t139 a_n7636_8799.t57 CSoutput.t187 vdd.t14 sky130_fd_pr__pfet_01v8 ad=1.32 pd=8.33 as=1.32 ps=8.33 w=8 l=0.5
X84 CSoutput.t65 a_n7636_8799.t58 vdd.t138 vdd.t124 sky130_fd_pr__pfet_01v8 ad=1.32 pd=8.33 as=1.32 ps=8.33 w=8 l=0.5
X85 CSoutput.t49 a_n7636_8799.t59 vdd.t137 vdd.t57 sky130_fd_pr__pfet_01v8 ad=1.32 pd=8.33 as=1.32 ps=8.33 w=8 l=0.5
X86 CSoutput.t60 a_n7636_8799.t60 vdd.t136 vdd.t74 sky130_fd_pr__pfet_01v8 ad=1.32 pd=8.33 as=3.12 ps=16.78 w=8 l=0.5
X87 CSoutput.t58 a_n7636_8799.t61 vdd.t135 vdd.t124 sky130_fd_pr__pfet_01v8 ad=1.32 pd=8.33 as=1.32 ps=8.33 w=8 l=0.5
X88 commonsourceibias.t49 commonsourceibias.t48 gnd.t320 gnd.t244 sky130_fd_pr__nfet_01v8 ad=1.155 pd=7.33 as=1.155 ps=7.33 w=7 l=1
X89 gnd.t319 commonsourceibias.t95 CSoutput.t145 gnd.t231 sky130_fd_pr__nfet_01v8 ad=1.155 pd=7.33 as=1.155 ps=7.33 w=7 l=1
X90 output.t11 CSoutput.t206 vdd.t176 gnd.t51 sky130_fd_pr__nfet_01v8 ad=1.95 pd=10.78 as=0.825 ps=5.33 w=5 l=1
X91 vdd.t134 a_n7636_8799.t62 CSoutput.t70 vdd.t121 sky130_fd_pr__pfet_01v8 ad=1.32 pd=8.33 as=1.32 ps=8.33 w=8 l=0.5
X92 commonsourceibias.t47 commonsourceibias.t46 gnd.t318 gnd.t186 sky130_fd_pr__nfet_01v8 ad=1.155 pd=7.33 as=1.155 ps=7.33 w=7 l=1
X93 gnd.t316 commonsourceibias.t96 CSoutput.t143 gnd.t291 sky130_fd_pr__nfet_01v8 ad=1.155 pd=7.33 as=1.155 ps=7.33 w=7 l=1
X94 a_n2903_n3924.t34 plus.t9 a_n7636_8799.t23 gnd.t25 sky130_fd_pr__nfet_01v8 ad=1.155 pd=7.33 as=1.155 ps=7.33 w=7 l=0.7
X95 CSoutput.t144 commonsourceibias.t97 gnd.t317 gnd.t288 sky130_fd_pr__nfet_01v8 ad=1.155 pd=7.33 as=1.155 ps=7.33 w=7 l=1
X96 gnd.t315 commonsourceibias.t44 commonsourceibias.t45 gnd.t291 sky130_fd_pr__nfet_01v8 ad=1.155 pd=7.33 as=1.155 ps=7.33 w=7 l=1
X97 a_n2903_n3924.t8 diffpairibias.t17 gnd.t12 gnd.t11 sky130_fd_pr__nfet_01v8 ad=2.73 pd=14.78 as=2.73 ps=14.78 w=7 l=1
X98 CSoutput.t207 a_n1986_8322.t20 sky130_fd_pr__cap_mim_m3_1 l=12 w=12
X99 vdd.t133 a_n7636_8799.t63 CSoutput.t17 vdd.t86 sky130_fd_pr__pfet_01v8 ad=1.32 pd=8.33 as=1.32 ps=8.33 w=8 l=0.5
X100 a_n1996_n452.t26 a_n1996_n452.t25 a_n1808_13878.t8 vdd.t169 sky130_fd_pr__pfet_01v8 ad=1.485 pd=9.33 as=1.485 ps=9.33 w=9 l=0.5
X101 vdd.t132 a_n7636_8799.t64 CSoutput.t92 vdd.t67 sky130_fd_pr__pfet_01v8 ad=1.32 pd=8.33 as=1.32 ps=8.33 w=8 l=0.5
X102 a_n7636_8799.t6 a_n1996_n452.t47 a_n1986_8322.t9 vdd.t173 sky130_fd_pr__pfet_01v8 ad=1.485 pd=9.33 as=1.485 ps=9.33 w=9 l=0.5
X103 vdd.t131 a_n7636_8799.t65 CSoutput.t16 vdd.t119 sky130_fd_pr__pfet_01v8 ad=1.32 pd=8.33 as=1.32 ps=8.33 w=8 l=0.5
X104 a_n1996_n452.t28 a_n1996_n452.t27 a_n1808_13878.t7 vdd.t168 sky130_fd_pr__pfet_01v8 ad=3.51 pd=18.78 as=1.485 ps=9.33 w=9 l=0.5
X105 gnd.t314 commonsourceibias.t42 commonsourceibias.t43 gnd.t276 sky130_fd_pr__nfet_01v8 ad=2.73 pd=14.78 as=1.155 ps=7.33 w=7 l=1
X106 vdd.t130 a_n7636_8799.t66 CSoutput.t20 vdd.t121 sky130_fd_pr__pfet_01v8 ad=1.32 pd=8.33 as=1.32 ps=8.33 w=8 l=0.5
X107 commonsourceibias.t41 commonsourceibias.t40 gnd.t312 gnd.t196 sky130_fd_pr__nfet_01v8 ad=1.155 pd=7.33 as=1.155 ps=7.33 w=7 l=1
X108 CSoutput.t141 commonsourceibias.t98 gnd.t311 gnd.t201 sky130_fd_pr__nfet_01v8 ad=1.155 pd=7.33 as=1.155 ps=7.33 w=7 l=1
X109 vdd.t129 a_n7636_8799.t67 CSoutput.t94 vdd.t34 sky130_fd_pr__pfet_01v8 ad=1.32 pd=8.33 as=1.32 ps=8.33 w=8 l=0.5
X110 CSoutput.t35 a_n7636_8799.t68 vdd.t128 vdd.t71 sky130_fd_pr__pfet_01v8 ad=1.32 pd=8.33 as=1.32 ps=8.33 w=8 l=0.5
X111 CSoutput.t140 commonsourceibias.t99 gnd.t310 gnd.t273 sky130_fd_pr__nfet_01v8 ad=1.155 pd=7.33 as=1.155 ps=7.33 w=7 l=1
X112 vdd.t178 CSoutput.t208 output.t10 gnd.t50 sky130_fd_pr__nfet_01v8 ad=0.825 pd=5.33 as=1.95 ps=10.78 w=5 l=1
X113 a_n1996_n452.t1 minus.t10 a_n2903_n3924.t1 gnd.t2 sky130_fd_pr__nfet_01v8 ad=1.155 pd=7.33 as=1.155 ps=7.33 w=7 l=0.7
X114 vdd.t259 vdd.t257 vdd.t258 vdd.t244 sky130_fd_pr__pfet_01v8 ad=3.51 pd=18.78 as=0 ps=0 w=9 l=0.5
X115 vdd.t127 a_n7636_8799.t69 CSoutput.t54 vdd.t89 sky130_fd_pr__pfet_01v8 ad=1.32 pd=8.33 as=1.32 ps=8.33 w=8 l=0.5
X116 CSoutput.t122 commonsourceibias.t100 gnd.t309 gnd.t282 sky130_fd_pr__nfet_01v8 ad=1.155 pd=7.33 as=1.155 ps=7.33 w=7 l=1
X117 CSoutput.t4 a_n7636_8799.t70 vdd.t126 vdd.t37 sky130_fd_pr__pfet_01v8 ad=1.32 pd=8.33 as=1.32 ps=8.33 w=8 l=0.5
X118 vdd.t256 vdd.t253 vdd.t255 vdd.t254 sky130_fd_pr__pfet_01v8 ad=3.51 pd=18.78 as=0 ps=0 w=9 l=0.5
X119 gnd.t277 commonsourceibias.t101 CSoutput.t162 gnd.t276 sky130_fd_pr__nfet_01v8 ad=2.73 pd=14.78 as=1.155 ps=7.33 w=7 l=1
X120 commonsourceibias.t23 commonsourceibias.t22 gnd.t308 gnd.t229 sky130_fd_pr__nfet_01v8 ad=1.155 pd=7.33 as=1.155 ps=7.33 w=7 l=1
X121 CSoutput.t121 commonsourceibias.t102 gnd.t307 gnd.t278 sky130_fd_pr__nfet_01v8 ad=1.155 pd=7.33 as=2.73 ps=14.78 w=7 l=1
X122 a_n2903_n3924.t24 minus.t11 a_n1996_n452.t40 gnd.t13 sky130_fd_pr__nfet_01v8 ad=1.155 pd=7.33 as=1.155 ps=7.33 w=7 l=0.7
X123 CSoutput.t120 commonsourceibias.t103 gnd.t306 gnd.t305 sky130_fd_pr__nfet_01v8 ad=1.155 pd=7.33 as=1.155 ps=7.33 w=7 l=1
X124 vdd.t252 vdd.t250 vdd.t251 vdd.t197 sky130_fd_pr__pfet_01v8 ad=3.51 pd=18.78 as=0 ps=0 w=9 l=0.5
X125 vdd.t249 vdd.t247 vdd.t248 vdd.t240 sky130_fd_pr__pfet_01v8 ad=3.51 pd=18.78 as=0 ps=0 w=9 l=0.5
X126 vdd.t291 a_n1996_n452.t48 a_n1986_8322.t19 vdd.t290 sky130_fd_pr__pfet_01v8 ad=1.485 pd=9.33 as=1.485 ps=9.33 w=9 l=0.5
X127 a_n1986_8322.t18 a_n1996_n452.t49 vdd.t282 vdd.t281 sky130_fd_pr__pfet_01v8 ad=1.485 pd=9.33 as=1.485 ps=9.33 w=9 l=0.5
X128 a_n2903_n3924.t9 diffpairibias.t18 gnd.t15 gnd.t14 sky130_fd_pr__nfet_01v8 ad=2.73 pd=14.78 as=2.73 ps=14.78 w=7 l=1
X129 CSoutput.t197 a_n7636_8799.t71 vdd.t125 vdd.t124 sky130_fd_pr__pfet_01v8 ad=1.32 pd=8.33 as=1.32 ps=8.33 w=8 l=0.5
X130 CSoutput.t36 a_n7636_8799.t72 vdd.t123 vdd.t74 sky130_fd_pr__pfet_01v8 ad=1.32 pd=8.33 as=3.12 ps=16.78 w=8 l=0.5
X131 gnd.t163 gnd.t161 gnd.t162 gnd.t109 sky130_fd_pr__nfet_01v8 ad=2.73 pd=14.78 as=0 ps=0 w=7 l=0.7
X132 gnd.t275 commonsourceibias.t104 CSoutput.t161 gnd.t251 sky130_fd_pr__nfet_01v8 ad=1.155 pd=7.33 as=1.155 ps=7.33 w=7 l=1
X133 vdd.t122 a_n7636_8799.t73 CSoutput.t62 vdd.t121 sky130_fd_pr__pfet_01v8 ad=1.32 pd=8.33 as=1.32 ps=8.33 w=8 l=0.5
X134 a_n2903_n3924.t20 minus.t12 a_n1996_n452.t38 gnd.t64 sky130_fd_pr__nfet_01v8 ad=1.155 pd=7.33 as=1.155 ps=7.33 w=7 l=0.7
X135 commonsourceibias.t21 commonsourceibias.t20 gnd.t304 gnd.t282 sky130_fd_pr__nfet_01v8 ad=1.155 pd=7.33 as=1.155 ps=7.33 w=7 l=1
X136 commonsourceibias.t19 commonsourceibias.t18 gnd.t303 gnd.t199 sky130_fd_pr__nfet_01v8 ad=1.155 pd=7.33 as=1.155 ps=7.33 w=7 l=1
X137 vdd.t193 a_n1996_n452.t50 a_n1808_13878.t18 vdd.t192 sky130_fd_pr__pfet_01v8 ad=1.485 pd=9.33 as=1.485 ps=9.33 w=9 l=0.5
X138 a_n1996_n452.t36 minus.t13 a_n2903_n3924.t18 gnd.t65 sky130_fd_pr__nfet_01v8 ad=1.155 pd=7.33 as=2.73 ps=14.78 w=7 l=0.7
X139 a_n2903_n3924.t39 plus.t10 a_n7636_8799.t22 gnd.t39 sky130_fd_pr__nfet_01v8 ad=1.155 pd=7.33 as=1.155 ps=7.33 w=7 l=0.7
X140 a_n2903_n3924.t40 plus.t11 a_n7636_8799.t21 gnd.t180 sky130_fd_pr__nfet_01v8 ad=1.155 pd=7.33 as=1.155 ps=7.33 w=7 l=0.7
X141 vdd.t246 vdd.t243 vdd.t245 vdd.t244 sky130_fd_pr__pfet_01v8 ad=3.51 pd=18.78 as=0 ps=0 w=9 l=0.5
X142 gnd.t302 commonsourceibias.t16 commonsourceibias.t17 gnd.t220 sky130_fd_pr__nfet_01v8 ad=1.155 pd=7.33 as=1.155 ps=7.33 w=7 l=1
X143 vdd.t242 vdd.t239 vdd.t241 vdd.t240 sky130_fd_pr__pfet_01v8 ad=3.51 pd=18.78 as=0 ps=0 w=9 l=0.5
X144 gnd.t301 commonsourceibias.t105 CSoutput.t119 gnd.t182 sky130_fd_pr__nfet_01v8 ad=1.155 pd=7.33 as=1.155 ps=7.33 w=7 l=1
X145 vdd.t120 a_n7636_8799.t74 CSoutput.t18 vdd.t119 sky130_fd_pr__pfet_01v8 ad=1.32 pd=8.33 as=1.32 ps=8.33 w=8 l=0.5
X146 gnd.t300 commonsourceibias.t14 commonsourceibias.t15 gnd.t299 sky130_fd_pr__nfet_01v8 ad=1.155 pd=7.33 as=1.155 ps=7.33 w=7 l=1
X147 outputibias.t1 outputibias.t0 gnd.t4 gnd.t3 sky130_fd_pr__nfet_01v8 ad=2.34 pd=12.78 as=2.34 ps=12.78 w=6 l=2
X148 a_n7636_8799.t20 plus.t12 a_n2903_n3924.t42 gnd.t181 sky130_fd_pr__nfet_01v8 ad=1.155 pd=7.33 as=1.155 ps=7.33 w=7 l=0.7
X149 a_n7636_8799.t19 plus.t13 a_n2903_n3924.t31 gnd.t10 sky130_fd_pr__nfet_01v8 ad=1.155 pd=7.33 as=2.73 ps=14.78 w=7 l=0.7
X150 vdd.t238 vdd.t235 vdd.t237 vdd.t236 sky130_fd_pr__pfet_01v8 ad=3.51 pd=18.78 as=0 ps=0 w=9 l=0.5
X151 a_n1986_8322.t17 a_n1996_n452.t51 vdd.t286 vdd.t285 sky130_fd_pr__pfet_01v8 ad=3.51 pd=18.78 as=1.485 ps=9.33 w=9 l=0.5
X152 a_n7636_8799.t0 a_n1996_n452.t52 a_n1986_8322.t8 vdd.t0 sky130_fd_pr__pfet_01v8 ad=1.485 pd=9.33 as=1.485 ps=9.33 w=9 l=0.5
X153 commonsourceibias.t13 commonsourceibias.t12 gnd.t298 gnd.t235 sky130_fd_pr__nfet_01v8 ad=1.155 pd=7.33 as=1.155 ps=7.33 w=7 l=1
X154 gnd.t297 commonsourceibias.t106 CSoutput.t118 gnd.t238 sky130_fd_pr__nfet_01v8 ad=1.155 pd=7.33 as=1.155 ps=7.33 w=7 l=1
X155 gnd.t296 commonsourceibias.t107 CSoutput.t117 gnd.t295 sky130_fd_pr__nfet_01v8 ad=1.155 pd=7.33 as=1.155 ps=7.33 w=7 l=1
X156 gnd.t294 commonsourceibias.t108 CSoutput.t116 gnd.t249 sky130_fd_pr__nfet_01v8 ad=2.73 pd=14.78 as=1.155 ps=7.33 w=7 l=1
X157 CSoutput.t57 a_n7636_8799.t75 vdd.t118 vdd.t48 sky130_fd_pr__pfet_01v8 ad=1.32 pd=8.33 as=1.32 ps=8.33 w=8 l=0.5
X158 diffpairibias.t11 diffpairibias.t10 gnd.t349 gnd.t348 sky130_fd_pr__nfet_01v8 ad=2.73 pd=14.78 as=2.73 ps=14.78 w=7 l=1
X159 vdd.t117 a_n7636_8799.t76 CSoutput.t186 vdd.t116 sky130_fd_pr__pfet_01v8 ad=1.32 pd=8.33 as=1.32 ps=8.33 w=8 l=0.5
X160 a_n1996_n452.t34 minus.t14 a_n2903_n3924.t13 gnd.t19 sky130_fd_pr__nfet_01v8 ad=1.155 pd=7.33 as=1.155 ps=7.33 w=7 l=0.7
X161 a_n1996_n452.t30 a_n1996_n452.t29 a_n1808_13878.t6 vdd.t3 sky130_fd_pr__pfet_01v8 ad=1.485 pd=9.33 as=1.485 ps=9.33 w=9 l=0.5
X162 vdd.t115 a_n7636_8799.t77 CSoutput.t0 vdd.t34 sky130_fd_pr__pfet_01v8 ad=1.32 pd=8.33 as=1.32 ps=8.33 w=8 l=0.5
X163 a_n7636_8799.t5 a_n1996_n452.t53 a_n1986_8322.t7 vdd.t170 sky130_fd_pr__pfet_01v8 ad=1.485 pd=9.33 as=1.485 ps=9.33 w=9 l=0.5
X164 CSoutput.t69 a_n7636_8799.t78 vdd.t114 vdd.t71 sky130_fd_pr__pfet_01v8 ad=1.32 pd=8.33 as=1.32 ps=8.33 w=8 l=0.5
X165 gnd.t293 commonsourceibias.t109 CSoutput.t105 gnd.t261 sky130_fd_pr__nfet_01v8 ad=1.155 pd=7.33 as=1.155 ps=7.33 w=7 l=1
X166 a_n1808_13878.t5 a_n1996_n452.t17 a_n1996_n452.t18 vdd.t173 sky130_fd_pr__pfet_01v8 ad=1.485 pd=9.33 as=1.485 ps=9.33 w=9 l=0.5
X167 output.t19 outputibias.t8 gnd.t22 gnd.t21 sky130_fd_pr__nfet_01v8 ad=2.34 pd=12.78 as=2.34 ps=12.78 w=6 l=2
X168 gnd.t160 gnd.t158 minus.t4 gnd.t159 sky130_fd_pr__nfet_01v8 ad=0.165 pd=1.33 as=0.39 ps=2.78 w=1 l=0.5
X169 a_n2903_n3924.t3 minus.t15 a_n1996_n452.t3 gnd.t5 sky130_fd_pr__nfet_01v8 ad=1.155 pd=7.33 as=1.155 ps=7.33 w=7 l=0.7
X170 gnd.t292 commonsourceibias.t110 CSoutput.t104 gnd.t291 sky130_fd_pr__nfet_01v8 ad=1.155 pd=7.33 as=1.155 ps=7.33 w=7 l=1
X171 CSoutput.t103 commonsourceibias.t111 gnd.t290 gnd.t288 sky130_fd_pr__nfet_01v8 ad=1.155 pd=7.33 as=1.155 ps=7.33 w=7 l=1
X172 commonsourceibias.t1 commonsourceibias.t0 gnd.t289 gnd.t288 sky130_fd_pr__nfet_01v8 ad=1.155 pd=7.33 as=1.155 ps=7.33 w=7 l=1
X173 CSoutput.t80 a_n7636_8799.t79 vdd.t113 vdd.t101 sky130_fd_pr__pfet_01v8 ad=1.32 pd=8.33 as=1.32 ps=8.33 w=8 l=0.5
X174 gnd.t287 commonsourceibias.t112 CSoutput.t102 gnd.t190 sky130_fd_pr__nfet_01v8 ad=1.155 pd=7.33 as=1.155 ps=7.33 w=7 l=1
X175 vdd.t167 a_n1996_n452.t54 a_n1986_8322.t16 vdd.t166 sky130_fd_pr__pfet_01v8 ad=1.485 pd=9.33 as=3.51 ps=18.78 w=9 l=0.5
X176 CSoutput.t101 commonsourceibias.t113 gnd.t286 gnd.t212 sky130_fd_pr__nfet_01v8 ad=1.155 pd=7.33 as=1.155 ps=7.33 w=7 l=1
X177 vdd.t112 a_n7636_8799.t80 CSoutput.t66 vdd.t99 sky130_fd_pr__pfet_01v8 ad=1.32 pd=8.33 as=1.32 ps=8.33 w=8 l=0.5
X178 CSoutput.t189 a_n7636_8799.t81 vdd.t111 vdd.t97 sky130_fd_pr__pfet_01v8 ad=1.32 pd=8.33 as=1.32 ps=8.33 w=8 l=0.5
X179 vdd.t110 a_n7636_8799.t82 CSoutput.t39 vdd.t8 sky130_fd_pr__pfet_01v8 ad=3.12 pd=16.78 as=1.32 ps=8.33 w=8 l=0.5
X180 a_n2903_n3924.t37 plus.t14 a_n7636_8799.t18 gnd.t0 sky130_fd_pr__nfet_01v8 ad=2.73 pd=14.78 as=1.155 ps=7.33 w=7 l=0.7
X181 gnd.t157 gnd.t155 minus.t3 gnd.t156 sky130_fd_pr__nfet_01v8 ad=0.165 pd=1.33 as=0.165 ps=1.33 w=1 l=0.5
X182 vdd.t109 a_n7636_8799.t83 CSoutput.t41 vdd.t50 sky130_fd_pr__pfet_01v8 ad=1.32 pd=8.33 as=1.32 ps=8.33 w=8 l=0.5
X183 CSoutput.t100 commonsourceibias.t114 gnd.t285 gnd.t273 sky130_fd_pr__nfet_01v8 ad=1.155 pd=7.33 as=1.155 ps=7.33 w=7 l=1
X184 a_n2903_n3924.t15 diffpairibias.t19 gnd.t59 gnd.t58 sky130_fd_pr__nfet_01v8 ad=2.73 pd=14.78 as=2.73 ps=14.78 w=7 l=1
X185 gnd.t154 gnd.t151 gnd.t153 gnd.t152 sky130_fd_pr__nfet_01v8 ad=2.73 pd=14.78 as=0 ps=0 w=7 l=1
X186 a_n2903_n3924.t14 diffpairibias.t20 gnd.t57 gnd.t56 sky130_fd_pr__nfet_01v8 ad=2.73 pd=14.78 as=2.73 ps=14.78 w=7 l=1
X187 vdd.t187 CSoutput.t209 output.t9 gnd.t49 sky130_fd_pr__nfet_01v8 ad=0.825 pd=5.33 as=0.825 ps=5.33 w=5 l=1
X188 CSoutput.t99 commonsourceibias.t115 gnd.t284 gnd.t192 sky130_fd_pr__nfet_01v8 ad=1.155 pd=7.33 as=1.155 ps=7.33 w=7 l=1
X189 CSoutput.t98 commonsourceibias.t116 gnd.t283 gnd.t282 sky130_fd_pr__nfet_01v8 ad=1.155 pd=7.33 as=1.155 ps=7.33 w=7 l=1
X190 vdd.t108 a_n7636_8799.t84 CSoutput.t73 vdd.t86 sky130_fd_pr__pfet_01v8 ad=1.32 pd=8.33 as=1.32 ps=8.33 w=8 l=0.5
X191 vdd.t107 a_n7636_8799.t85 CSoutput.t52 vdd.t55 sky130_fd_pr__pfet_01v8 ad=1.32 pd=8.33 as=1.32 ps=8.33 w=8 l=0.5
X192 a_n7636_8799.t17 plus.t15 a_n2903_n3924.t43 gnd.t20 sky130_fd_pr__nfet_01v8 ad=1.155 pd=7.33 as=1.155 ps=7.33 w=7 l=0.7
X193 gnd.t281 commonsourceibias.t117 CSoutput.t97 gnd.t276 sky130_fd_pr__nfet_01v8 ad=2.73 pd=14.78 as=1.155 ps=7.33 w=7 l=1
X194 gnd.t280 commonsourceibias.t118 CSoutput.t96 gnd.t253 sky130_fd_pr__nfet_01v8 ad=1.155 pd=7.33 as=1.155 ps=7.33 w=7 l=1
X195 CSoutput.t95 commonsourceibias.t119 gnd.t279 gnd.t278 sky130_fd_pr__nfet_01v8 ad=1.155 pd=7.33 as=2.73 ps=14.78 w=7 l=1
X196 commonsourceibias.t65 commonsourceibias.t64 gnd.t274 gnd.t273 sky130_fd_pr__nfet_01v8 ad=1.155 pd=7.33 as=1.155 ps=7.33 w=7 l=1
X197 CSoutput.t160 commonsourceibias.t120 gnd.t272 gnd.t227 sky130_fd_pr__nfet_01v8 ad=1.155 pd=7.33 as=1.155 ps=7.33 w=7 l=1
X198 gnd.t150 gnd.t148 gnd.t149 gnd.t76 sky130_fd_pr__nfet_01v8 ad=2.73 pd=14.78 as=0 ps=0 w=7 l=1
X199 gnd.t147 gnd.t144 gnd.t146 gnd.t145 sky130_fd_pr__nfet_01v8 ad=2.34 pd=12.78 as=0 ps=0 w=6 l=2
X200 CSoutput.t6 a_n7636_8799.t86 vdd.t106 vdd.t10 sky130_fd_pr__pfet_01v8 ad=1.32 pd=8.33 as=1.32 ps=8.33 w=8 l=0.5
X201 gnd.t271 commonsourceibias.t121 CSoutput.t159 gnd.t251 sky130_fd_pr__nfet_01v8 ad=1.155 pd=7.33 as=1.155 ps=7.33 w=7 l=1
X202 CSoutput.t195 a_n7636_8799.t87 vdd.t105 vdd.t104 sky130_fd_pr__pfet_01v8 ad=1.32 pd=8.33 as=1.32 ps=8.33 w=8 l=0.5
X203 CSoutput.t56 a_n7636_8799.t88 vdd.t103 vdd.t81 sky130_fd_pr__pfet_01v8 ad=1.32 pd=8.33 as=1.32 ps=8.33 w=8 l=0.5
X204 gnd.t143 gnd.t141 gnd.t142 gnd.t105 sky130_fd_pr__nfet_01v8 ad=2.73 pd=14.78 as=0 ps=0 w=7 l=1
X205 CSoutput.t158 commonsourceibias.t122 gnd.t270 gnd.t244 sky130_fd_pr__nfet_01v8 ad=1.155 pd=7.33 as=1.155 ps=7.33 w=7 l=1
X206 diffpairibias.t9 diffpairibias.t8 gnd.t36 gnd.t35 sky130_fd_pr__nfet_01v8 ad=2.73 pd=14.78 as=2.73 ps=14.78 w=7 l=1
X207 a_n1808_13878.t17 a_n1996_n452.t55 vdd.t175 vdd.t174 sky130_fd_pr__pfet_01v8 ad=1.485 pd=9.33 as=1.485 ps=9.33 w=9 l=0.5
X208 vdd.t2 a_n1996_n452.t56 a_n1808_13878.t16 vdd.t1 sky130_fd_pr__pfet_01v8 ad=1.485 pd=9.33 as=1.485 ps=9.33 w=9 l=0.5
X209 vdd.t234 vdd.t232 vdd.t233 vdd.t208 sky130_fd_pr__pfet_01v8 ad=3.12 pd=16.78 as=0 ps=0 w=8 l=0.5
X210 vdd.t231 vdd.t229 vdd.t230 vdd.t216 sky130_fd_pr__pfet_01v8 ad=3.12 pd=16.78 as=0 ps=0 w=8 l=0.5
X211 CSoutput.t179 a_n7636_8799.t89 vdd.t102 vdd.t101 sky130_fd_pr__pfet_01v8 ad=1.32 pd=8.33 as=1.32 ps=8.33 w=8 l=0.5
X212 vdd.t100 a_n7636_8799.t90 CSoutput.t30 vdd.t99 sky130_fd_pr__pfet_01v8 ad=1.32 pd=8.33 as=1.32 ps=8.33 w=8 l=0.5
X213 vdd.t228 vdd.t226 vdd.t227 vdd.t216 sky130_fd_pr__pfet_01v8 ad=3.12 pd=16.78 as=0 ps=0 w=8 l=0.5
X214 gnd.t269 commonsourceibias.t123 CSoutput.t157 gnd.t241 sky130_fd_pr__nfet_01v8 ad=1.155 pd=7.33 as=1.155 ps=7.33 w=7 l=1
X215 CSoutput.t156 commonsourceibias.t124 gnd.t268 gnd.t188 sky130_fd_pr__nfet_01v8 ad=1.155 pd=7.33 as=2.73 ps=14.78 w=7 l=1
X216 gnd.t267 commonsourceibias.t62 commonsourceibias.t63 gnd.t210 sky130_fd_pr__nfet_01v8 ad=1.155 pd=7.33 as=1.155 ps=7.33 w=7 l=1
X217 gnd.t266 commonsourceibias.t125 CSoutput.t155 gnd.t238 sky130_fd_pr__nfet_01v8 ad=1.155 pd=7.33 as=1.155 ps=7.33 w=7 l=1
X218 gnd.t265 commonsourceibias.t126 CSoutput.t154 gnd.t249 sky130_fd_pr__nfet_01v8 ad=2.73 pd=14.78 as=1.155 ps=7.33 w=7 l=1
X219 a_n2903_n3924.t12 minus.t16 a_n1996_n452.t33 gnd.t28 sky130_fd_pr__nfet_01v8 ad=1.155 pd=7.33 as=1.155 ps=7.33 w=7 l=0.7
X220 CSoutput.t23 a_n7636_8799.t91 vdd.t98 vdd.t97 sky130_fd_pr__pfet_01v8 ad=1.32 pd=8.33 as=1.32 ps=8.33 w=8 l=0.5
X221 vdd.t96 a_n7636_8799.t92 CSoutput.t19 vdd.t8 sky130_fd_pr__pfet_01v8 ad=3.12 pd=16.78 as=1.32 ps=8.33 w=8 l=0.5
X222 vdd.t95 a_n7636_8799.t93 CSoutput.t11 vdd.t50 sky130_fd_pr__pfet_01v8 ad=1.32 pd=8.33 as=1.32 ps=8.33 w=8 l=0.5
X223 gnd.t264 commonsourceibias.t127 CSoutput.t153 gnd.t261 sky130_fd_pr__nfet_01v8 ad=1.155 pd=7.33 as=1.155 ps=7.33 w=7 l=1
X224 a_n1986_8322.t6 a_n1996_n452.t57 a_n7636_8799.t7 vdd.t279 sky130_fd_pr__pfet_01v8 ad=1.485 pd=9.33 as=1.485 ps=9.33 w=9 l=0.5
X225 vdd.t184 CSoutput.t210 output.t8 gnd.t48 sky130_fd_pr__nfet_01v8 ad=0.825 pd=5.33 as=0.825 ps=5.33 w=5 l=1
X226 CSoutput.t14 a_n7636_8799.t94 vdd.t94 vdd.t52 sky130_fd_pr__pfet_01v8 ad=1.32 pd=8.33 as=1.32 ps=8.33 w=8 l=0.5
X227 diffpairibias.t7 diffpairibias.t6 gnd.t63 gnd.t62 sky130_fd_pr__nfet_01v8 ad=2.73 pd=14.78 as=2.73 ps=14.78 w=7 l=1
X228 CSoutput.t152 commonsourceibias.t128 gnd.t263 gnd.t235 sky130_fd_pr__nfet_01v8 ad=1.155 pd=7.33 as=1.155 ps=7.33 w=7 l=1
X229 vdd.t93 a_n7636_8799.t95 CSoutput.t55 vdd.t92 sky130_fd_pr__pfet_01v8 ad=1.32 pd=8.33 as=1.32 ps=8.33 w=8 l=0.5
X230 a_n1996_n452.t0 minus.t17 a_n2903_n3924.t0 gnd.t1 sky130_fd_pr__nfet_01v8 ad=1.155 pd=7.33 as=1.155 ps=7.33 w=7 l=0.7
X231 CSoutput.t24 a_n7636_8799.t96 vdd.t91 vdd.t26 sky130_fd_pr__pfet_01v8 ad=1.32 pd=8.33 as=1.32 ps=8.33 w=8 l=0.5
X232 a_n1996_n452.t32 minus.t18 a_n2903_n3924.t11 gnd.t18 sky130_fd_pr__nfet_01v8 ad=1.155 pd=7.33 as=1.155 ps=7.33 w=7 l=0.7
X233 vdd.t90 a_n7636_8799.t97 CSoutput.t185 vdd.t89 sky130_fd_pr__pfet_01v8 ad=1.32 pd=8.33 as=1.32 ps=8.33 w=8 l=0.5
X234 plus.t2 gnd.t138 gnd.t140 gnd.t139 sky130_fd_pr__nfet_01v8 ad=0.165 pd=1.33 as=0.165 ps=1.33 w=1 l=0.5
X235 vdd.t195 a_n1996_n452.t58 a_n1986_8322.t15 vdd.t194 sky130_fd_pr__pfet_01v8 ad=1.485 pd=9.33 as=3.51 ps=18.78 w=9 l=0.5
X236 gnd.t262 commonsourceibias.t30 commonsourceibias.t31 gnd.t261 sky130_fd_pr__nfet_01v8 ad=1.155 pd=7.33 as=1.155 ps=7.33 w=7 l=1
X237 vdd.t88 a_n7636_8799.t98 CSoutput.t43 vdd.t55 sky130_fd_pr__pfet_01v8 ad=1.32 pd=8.33 as=1.32 ps=8.33 w=8 l=0.5
X238 vdd.t87 a_n7636_8799.t99 CSoutput.t188 vdd.t86 sky130_fd_pr__pfet_01v8 ad=1.32 pd=8.33 as=1.32 ps=8.33 w=8 l=0.5
X239 gnd.t137 gnd.t135 gnd.t136 gnd.t105 sky130_fd_pr__nfet_01v8 ad=2.73 pd=14.78 as=0 ps=0 w=7 l=1
X240 CSoutput.t130 commonsourceibias.t129 gnd.t260 gnd.t186 sky130_fd_pr__nfet_01v8 ad=1.155 pd=7.33 as=1.155 ps=7.33 w=7 l=1
X241 a_n7636_8799.t16 plus.t16 a_n2903_n3924.t28 gnd.t7 sky130_fd_pr__nfet_01v8 ad=1.155 pd=7.33 as=1.155 ps=7.33 w=7 l=0.7
X242 gnd.t134 gnd.t132 minus.t2 gnd.t133 sky130_fd_pr__nfet_01v8 ad=0.39 pd=2.78 as=0.165 ps=1.33 w=1 l=0.5
X243 gnd.t259 commonsourceibias.t130 CSoutput.t129 gnd.t190 sky130_fd_pr__nfet_01v8 ad=1.155 pd=7.33 as=1.155 ps=7.33 w=7 l=1
X244 a_n2903_n3924.t19 minus.t19 a_n1996_n452.t37 gnd.t66 sky130_fd_pr__nfet_01v8 ad=1.155 pd=7.33 as=1.155 ps=7.33 w=7 l=0.7
X245 CSoutput.t128 commonsourceibias.t131 gnd.t258 gnd.t212 sky130_fd_pr__nfet_01v8 ad=1.155 pd=7.33 as=1.155 ps=7.33 w=7 l=1
X246 a_n1808_13878.t15 a_n1996_n452.t59 vdd.t295 vdd.t294 sky130_fd_pr__pfet_01v8 ad=3.51 pd=18.78 as=1.485 ps=9.33 w=9 l=0.5
X247 vdd.t85 a_n7636_8799.t100 CSoutput.t64 vdd.t67 sky130_fd_pr__pfet_01v8 ad=1.32 pd=8.33 as=1.32 ps=8.33 w=8 l=0.5