* NGSPICE file created from opamp61.ext - technology: sky130A

.subckt opamp61 gnd CSoutput output vdd plus minus commonsourceibias outputibias diffpairibias
X0 a_n8300_8799.t37 plus.t5 a_n2903_n3924.t28 gnd.t316 sky130_fd_pr__nfet_01v8 ad=1.155 pd=7.33 as=1.155 ps=7.33 w=7 l=0.7
X1 CSoutput.t95 commonsourceibias.t64 gnd.t30 gnd.t29 sky130_fd_pr__nfet_01v8 ad=1.155 pd=7.33 as=1.155 ps=7.33 w=7 l=1
X2 a_n2804_13878.t7 a_n2982_13878.t64 vdd.t131 vdd.t130 sky130_fd_pr__pfet_01v8 ad=1.485 pd=9.33 as=1.485 ps=9.33 w=9 l=0.5
X3 a_n2804_13878.t31 a_n2982_13878.t55 a_n2982_13878.t56 vdd.t118 sky130_fd_pr__pfet_01v8 ad=1.485 pd=9.33 as=1.485 ps=9.33 w=9 l=0.5
X4 CSoutput.t168 a_n2982_8322.t37 sky130_fd_pr__cap_mim_m3_1 l=12 w=12
X5 vdd.t243 a_n8300_8799.t40 CSoutput.t134 vdd.t207 sky130_fd_pr__pfet_01v8 ad=1.32 pd=8.33 as=1.32 ps=8.33 w=8 l=0.5
X6 gnd.t199 commonsourceibias.t65 CSoutput.t94 gnd.t12 sky130_fd_pr__nfet_01v8 ad=1.155 pd=7.33 as=1.155 ps=7.33 w=7 l=1
X7 CSoutput.t93 commonsourceibias.t66 gnd.t70 gnd.t69 sky130_fd_pr__nfet_01v8 ad=1.155 pd=7.33 as=1.155 ps=7.33 w=7 l=1
X8 CSoutput.t92 commonsourceibias.t67 gnd.t282 gnd.t44 sky130_fd_pr__nfet_01v8 ad=1.155 pd=7.33 as=1.155 ps=7.33 w=7 l=1
X9 CSoutput.t133 a_n8300_8799.t41 vdd.t242 vdd.t160 sky130_fd_pr__pfet_01v8 ad=1.32 pd=8.33 as=3.12 ps=16.78 w=8 l=0.5
X10 a_n2903_n3924.t36 plus.t6 a_n8300_8799.t36 gnd.t315 sky130_fd_pr__nfet_01v8 ad=1.155 pd=7.33 as=1.155 ps=7.33 w=7 l=0.7
X11 plus.t3 gnd.t194 gnd.t196 gnd.t195 sky130_fd_pr__nfet_01v8 ad=0.165 pd=1.33 as=0.165 ps=1.33 w=1 l=0.5
X12 a_n2982_8322.t31 a_n2982_13878.t65 a_n8300_8799.t7 vdd.t128 sky130_fd_pr__pfet_01v8 ad=1.485 pd=9.33 as=1.485 ps=9.33 w=9 l=0.5
X13 vdd.t135 CSoutput.t169 output.t18 gnd.t318 sky130_fd_pr__nfet_01v8 ad=0.825 pd=5.33 as=0.825 ps=5.33 w=5 l=1
X14 CSoutput.t162 a_n8300_8799.t42 vdd.t241 vdd.t180 sky130_fd_pr__pfet_01v8 ad=1.32 pd=8.33 as=1.32 ps=8.33 w=8 l=0.5
X15 CSoutput.t91 commonsourceibias.t68 gnd.t251 gnd.t18 sky130_fd_pr__nfet_01v8 ad=1.155 pd=7.33 as=1.155 ps=7.33 w=7 l=1
X16 gnd.t284 commonsourceibias.t69 CSoutput.t90 gnd.t6 sky130_fd_pr__nfet_01v8 ad=1.155 pd=7.33 as=1.155 ps=7.33 w=7 l=1
X17 CSoutput.t89 commonsourceibias.t70 gnd.t275 gnd.t233 sky130_fd_pr__nfet_01v8 ad=1.155 pd=7.33 as=1.155 ps=7.33 w=7 l=1
X18 gnd.t220 commonsourceibias.t71 CSoutput.t88 gnd.t16 sky130_fd_pr__nfet_01v8 ad=2.73 pd=14.78 as=1.155 ps=7.33 w=7 l=1
X19 vdd.t240 a_n8300_8799.t43 CSoutput.t161 vdd.t200 sky130_fd_pr__pfet_01v8 ad=3.12 pd=16.78 as=1.32 ps=8.33 w=8 l=0.5
X20 CSoutput.t87 commonsourceibias.t72 gnd.t240 gnd.t233 sky130_fd_pr__nfet_01v8 ad=1.155 pd=7.33 as=1.155 ps=7.33 w=7 l=1
X21 CSoutput.t86 commonsourceibias.t73 gnd.t64 gnd.t63 sky130_fd_pr__nfet_01v8 ad=1.155 pd=7.33 as=1.155 ps=7.33 w=7 l=1
X22 gnd.t261 commonsourceibias.t74 CSoutput.t85 gnd.t53 sky130_fd_pr__nfet_01v8 ad=2.73 pd=14.78 as=1.155 ps=7.33 w=7 l=1
X23 commonsourceibias.t63 commonsourceibias.t62 gnd.t198 gnd.t18 sky130_fd_pr__nfet_01v8 ad=1.155 pd=7.33 as=1.155 ps=7.33 w=7 l=1
X24 CSoutput.t84 commonsourceibias.t75 gnd.t202 gnd.t44 sky130_fd_pr__nfet_01v8 ad=1.155 pd=7.33 as=1.155 ps=7.33 w=7 l=1
X25 a_n8300_8799.t38 a_n2982_13878.t66 a_n2982_8322.t30 vdd.t114 sky130_fd_pr__pfet_01v8 ad=1.485 pd=9.33 as=1.485 ps=9.33 w=9 l=0.5
X26 vdd.t239 a_n8300_8799.t44 CSoutput.t160 vdd.t152 sky130_fd_pr__pfet_01v8 ad=1.32 pd=8.33 as=1.32 ps=8.33 w=8 l=0.5
X27 a_n2982_13878.t4 minus.t5 a_n2903_n3924.t6 gnd.t37 sky130_fd_pr__nfet_01v8 ad=1.155 pd=7.33 as=1.155 ps=7.33 w=7 l=0.7
X28 vdd.t238 a_n8300_8799.t45 CSoutput.t122 vdd.t216 sky130_fd_pr__pfet_01v8 ad=1.32 pd=8.33 as=1.32 ps=8.33 w=8 l=0.5
X29 CSoutput.t170 a_n2982_8322.t36 sky130_fd_pr__cap_mim_m3_1 l=12 w=12
X30 a_n8300_8799.t12 a_n2982_13878.t67 a_n2982_8322.t29 vdd.t77 sky130_fd_pr__pfet_01v8 ad=1.485 pd=9.33 as=3.51 ps=18.78 w=9 l=0.5
X31 CSoutput.t83 commonsourceibias.t76 gnd.t254 gnd.t29 sky130_fd_pr__nfet_01v8 ad=1.155 pd=7.33 as=1.155 ps=7.33 w=7 l=1
X32 gnd.t204 commonsourceibias.t77 CSoutput.t82 gnd.t0 sky130_fd_pr__nfet_01v8 ad=1.155 pd=7.33 as=1.155 ps=7.33 w=7 l=1
X33 gnd.t193 gnd.t191 gnd.t192 gnd.t111 sky130_fd_pr__nfet_01v8 ad=2.73 pd=14.78 as=0 ps=0 w=7 l=1
X34 CSoutput.t81 commonsourceibias.t78 gnd.t72 gnd.t71 sky130_fd_pr__nfet_01v8 ad=1.155 pd=7.33 as=1.155 ps=7.33 w=7 l=1
X35 CSoutput.t80 commonsourceibias.t79 gnd.t304 gnd.t241 sky130_fd_pr__nfet_01v8 ad=1.155 pd=7.33 as=1.155 ps=7.33 w=7 l=1
X36 a_n2903_n3924.t11 minus.t6 a_n2982_13878.t7 gnd.t223 sky130_fd_pr__nfet_01v8 ad=2.73 pd=14.78 as=1.155 ps=7.33 w=7 l=0.7
X37 gnd.t190 gnd.t188 gnd.t189 gnd.t103 sky130_fd_pr__nfet_01v8 ad=2.73 pd=14.78 as=0 ps=0 w=7 l=1
X38 gnd.t187 gnd.t185 minus.t4 gnd.t186 sky130_fd_pr__nfet_01v8 ad=0.165 pd=1.33 as=0.39 ps=2.78 w=1 l=0.5
X39 CSoutput.t79 commonsourceibias.t80 gnd.t279 gnd.t4 sky130_fd_pr__nfet_01v8 ad=1.155 pd=7.33 as=1.155 ps=7.33 w=7 l=1
X40 a_n2903_n3924.t7 diffpairibias.t16 gnd.t41 gnd.t40 sky130_fd_pr__nfet_01v8 ad=2.73 pd=14.78 as=2.73 ps=14.78 w=7 l=1
X41 CSoutput.t121 a_n8300_8799.t46 vdd.t237 vdd.t189 sky130_fd_pr__pfet_01v8 ad=1.32 pd=8.33 as=1.32 ps=8.33 w=8 l=0.5
X42 gnd.t73 commonsourceibias.t81 CSoutput.t78 gnd.t24 sky130_fd_pr__nfet_01v8 ad=1.155 pd=7.33 as=1.155 ps=7.33 w=7 l=1
X43 gnd.t184 gnd.t182 gnd.t183 gnd.t131 sky130_fd_pr__nfet_01v8 ad=2.73 pd=14.78 as=0 ps=0 w=7 l=0.7
X44 vdd.t236 a_n8300_8799.t47 CSoutput.t120 vdd.t152 sky130_fd_pr__pfet_01v8 ad=1.32 pd=8.33 as=1.32 ps=8.33 w=8 l=0.5
X45 CSoutput.t77 commonsourceibias.t82 gnd.t205 gnd.t2 sky130_fd_pr__nfet_01v8 ad=1.155 pd=7.33 as=2.73 ps=14.78 w=7 l=1
X46 gnd.t267 commonsourceibias.t60 commonsourceibias.t61 gnd.t61 sky130_fd_pr__nfet_01v8 ad=1.155 pd=7.33 as=1.155 ps=7.33 w=7 l=1
X47 CSoutput.t76 commonsourceibias.t83 gnd.t27 gnd.t4 sky130_fd_pr__nfet_01v8 ad=1.155 pd=7.33 as=1.155 ps=7.33 w=7 l=1
X48 output.t2 outputibias.t8 gnd.t271 gnd.t270 sky130_fd_pr__nfet_01v8 ad=2.34 pd=12.78 as=2.34 ps=12.78 w=6 l=2
X49 gnd.t246 commonsourceibias.t84 CSoutput.t75 gnd.t200 sky130_fd_pr__nfet_01v8 ad=1.155 pd=7.33 as=1.155 ps=7.33 w=7 l=1
X50 a_n2903_n3924.t32 plus.t7 a_n8300_8799.t35 gnd.t66 sky130_fd_pr__nfet_01v8 ad=1.155 pd=7.33 as=1.155 ps=7.33 w=7 l=0.7
X51 CSoutput.t74 commonsourceibias.t85 gnd.t347 gnd.t42 sky130_fd_pr__nfet_01v8 ad=1.155 pd=7.33 as=1.155 ps=7.33 w=7 l=1
X52 a_n2804_13878.t30 a_n2982_13878.t59 a_n2982_13878.t60 vdd.t85 sky130_fd_pr__pfet_01v8 ad=1.485 pd=9.33 as=1.485 ps=9.33 w=9 l=0.5
X53 gnd.t289 commonsourceibias.t86 CSoutput.t73 gnd.t200 sky130_fd_pr__nfet_01v8 ad=1.155 pd=7.33 as=1.155 ps=7.33 w=7 l=1
X54 vdd.t137 CSoutput.t171 output.t17 gnd.t319 sky130_fd_pr__nfet_01v8 ad=0.825 pd=5.33 as=0.825 ps=5.33 w=5 l=1
X55 CSoutput.t72 commonsourceibias.t87 gnd.t203 gnd.t56 sky130_fd_pr__nfet_01v8 ad=1.155 pd=7.33 as=1.155 ps=7.33 w=7 l=1
X56 a_n2982_13878.t14 a_n2982_13878.t13 a_n2804_13878.t29 vdd.t98 sky130_fd_pr__pfet_01v8 ad=1.485 pd=9.33 as=1.485 ps=9.33 w=9 l=0.5
X57 gnd.t212 commonsourceibias.t88 CSoutput.t71 gnd.t12 sky130_fd_pr__nfet_01v8 ad=1.155 pd=7.33 as=1.155 ps=7.33 w=7 l=1
X58 a_n8300_8799.t34 plus.t8 a_n2903_n3924.t23 gnd.t35 sky130_fd_pr__nfet_01v8 ad=1.155 pd=7.33 as=1.155 ps=7.33 w=7 l=0.7
X59 CSoutput.t145 a_n8300_8799.t48 vdd.t235 vdd.t180 sky130_fd_pr__pfet_01v8 ad=1.32 pd=8.33 as=1.32 ps=8.33 w=8 l=0.5
X60 gnd.t350 commonsourceibias.t58 commonsourceibias.t59 gnd.t20 sky130_fd_pr__nfet_01v8 ad=1.155 pd=7.33 as=1.155 ps=7.33 w=7 l=1
X61 vdd.t75 vdd.t73 vdd.t74 vdd.t50 sky130_fd_pr__pfet_01v8 ad=3.51 pd=18.78 as=0 ps=0 w=9 l=0.5
X62 CSoutput.t70 commonsourceibias.t89 gnd.t234 gnd.t233 sky130_fd_pr__nfet_01v8 ad=1.155 pd=7.33 as=1.155 ps=7.33 w=7 l=1
X63 gnd.t181 gnd.t178 gnd.t180 gnd.t179 sky130_fd_pr__nfet_01v8 ad=1.95 pd=10.78 as=0 ps=0 w=5 l=1
X64 vdd.t234 a_n8300_8799.t49 CSoutput.t144 vdd.t200 sky130_fd_pr__pfet_01v8 ad=3.12 pd=16.78 as=1.32 ps=8.33 w=8 l=0.5
X65 gnd.t177 gnd.t175 gnd.t176 gnd.t111 sky130_fd_pr__nfet_01v8 ad=2.73 pd=14.78 as=0 ps=0 w=7 l=1
X66 CSoutput.t69 commonsourceibias.t90 gnd.t43 gnd.t42 sky130_fd_pr__nfet_01v8 ad=1.155 pd=7.33 as=1.155 ps=7.33 w=7 l=1
X67 diffpairibias.t15 diffpairibias.t14 gnd.t256 gnd.t255 sky130_fd_pr__nfet_01v8 ad=2.73 pd=14.78 as=2.73 ps=14.78 w=7 l=1
X68 a_n2982_13878.t12 minus.t7 a_n2903_n3924.t19 gnd.t288 sky130_fd_pr__nfet_01v8 ad=1.155 pd=7.33 as=1.155 ps=7.33 w=7 l=0.7
X69 a_n2982_13878.t42 a_n2982_13878.t41 a_n2804_13878.t28 vdd.t113 sky130_fd_pr__pfet_01v8 ad=1.485 pd=9.33 as=1.485 ps=9.33 w=9 l=0.5
X70 CSoutput.t68 commonsourceibias.t91 gnd.t3 gnd.t2 sky130_fd_pr__nfet_01v8 ad=1.155 pd=7.33 as=2.73 ps=14.78 w=7 l=1
X71 CSoutput.t67 commonsourceibias.t92 gnd.t274 gnd.t259 sky130_fd_pr__nfet_01v8 ad=1.155 pd=7.33 as=1.155 ps=7.33 w=7 l=1
X72 gnd.t230 commonsourceibias.t93 CSoutput.t66 gnd.t38 sky130_fd_pr__nfet_01v8 ad=1.155 pd=7.33 as=1.155 ps=7.33 w=7 l=1
X73 gnd.t239 commonsourceibias.t94 CSoutput.t65 gnd.t22 sky130_fd_pr__nfet_01v8 ad=1.155 pd=7.33 as=1.155 ps=7.33 w=7 l=1
X74 a_n8300_8799.t4 a_n2982_13878.t68 a_n2982_8322.t28 vdd.t108 sky130_fd_pr__pfet_01v8 ad=1.485 pd=9.33 as=1.485 ps=9.33 w=9 l=0.5
X75 CSoutput.t143 a_n8300_8799.t50 vdd.t233 vdd.t209 sky130_fd_pr__pfet_01v8 ad=1.32 pd=8.33 as=1.32 ps=8.33 w=8 l=0.5
X76 gnd.t217 commonsourceibias.t95 CSoutput.t64 gnd.t206 sky130_fd_pr__nfet_01v8 ad=1.155 pd=7.33 as=1.155 ps=7.33 w=7 l=1
X77 a_n2982_13878.t34 a_n2982_13878.t33 a_n2804_13878.t27 vdd.t129 sky130_fd_pr__pfet_01v8 ad=1.485 pd=9.33 as=1.485 ps=9.33 w=9 l=0.5
X78 vdd.t232 a_n8300_8799.t51 CSoutput.t98 vdd.t162 sky130_fd_pr__pfet_01v8 ad=1.32 pd=8.33 as=1.32 ps=8.33 w=8 l=0.5
X79 vdd.t231 a_n8300_8799.t52 CSoutput.t97 vdd.t216 sky130_fd_pr__pfet_01v8 ad=1.32 pd=8.33 as=1.32 ps=8.33 w=8 l=0.5
X80 a_n8300_8799.t3 a_n2982_13878.t69 a_n2982_8322.t27 vdd.t106 sky130_fd_pr__pfet_01v8 ad=1.485 pd=9.33 as=1.485 ps=9.33 w=9 l=0.5
X81 CSoutput.t63 commonsourceibias.t96 gnd.t273 gnd.t259 sky130_fd_pr__nfet_01v8 ad=1.155 pd=7.33 as=1.155 ps=7.33 w=7 l=1
X82 diffpairibias.t13 diffpairibias.t12 gnd.t355 gnd.t354 sky130_fd_pr__nfet_01v8 ad=2.73 pd=14.78 as=2.73 ps=14.78 w=7 l=1
X83 CSoutput.t96 a_n8300_8799.t53 vdd.t230 vdd.t165 sky130_fd_pr__pfet_01v8 ad=1.32 pd=8.33 as=1.32 ps=8.33 w=8 l=0.5
X84 gnd.t323 commonsourceibias.t56 commonsourceibias.t57 gnd.t248 sky130_fd_pr__nfet_01v8 ad=1.155 pd=7.33 as=1.155 ps=7.33 w=7 l=1
X85 gnd.t215 commonsourceibias.t97 CSoutput.t62 gnd.t53 sky130_fd_pr__nfet_01v8 ad=2.73 pd=14.78 as=1.155 ps=7.33 w=7 l=1
X86 CSoutput.t61 commonsourceibias.t98 gnd.t216 gnd.t56 sky130_fd_pr__nfet_01v8 ad=1.155 pd=7.33 as=1.155 ps=7.33 w=7 l=1
X87 a_n8300_8799.t16 a_n2982_13878.t70 a_n2982_8322.t26 vdd.t121 sky130_fd_pr__pfet_01v8 ad=1.485 pd=9.33 as=1.485 ps=9.33 w=9 l=0.5
X88 gnd.t283 commonsourceibias.t99 CSoutput.t60 gnd.t248 sky130_fd_pr__nfet_01v8 ad=1.155 pd=7.33 as=1.155 ps=7.33 w=7 l=1
X89 gnd.t174 gnd.t172 gnd.t173 gnd.t93 sky130_fd_pr__nfet_01v8 ad=2.73 pd=14.78 as=0 ps=0 w=7 l=1
X90 CSoutput.t59 commonsourceibias.t100 gnd.t278 gnd.t63 sky130_fd_pr__nfet_01v8 ad=1.155 pd=7.33 as=1.155 ps=7.33 w=7 l=1
X91 CSoutput.t58 commonsourceibias.t101 gnd.t339 gnd.t48 sky130_fd_pr__nfet_01v8 ad=1.155 pd=7.33 as=1.155 ps=7.33 w=7 l=1
X92 a_n2982_8322.t25 a_n2982_13878.t71 a_n8300_8799.t1 vdd.t129 sky130_fd_pr__pfet_01v8 ad=1.485 pd=9.33 as=1.485 ps=9.33 w=9 l=0.5
X93 gnd.t340 commonsourceibias.t102 CSoutput.t57 gnd.t0 sky130_fd_pr__nfet_01v8 ad=1.155 pd=7.33 as=1.155 ps=7.33 w=7 l=1
X94 vdd.t72 vdd.t70 vdd.t71 vdd.t37 sky130_fd_pr__pfet_01v8 ad=3.12 pd=16.78 as=0 ps=0 w=8 l=0.5
X95 CSoutput.t148 a_n8300_8799.t54 vdd.t229 vdd.t192 sky130_fd_pr__pfet_01v8 ad=1.32 pd=8.33 as=1.32 ps=8.33 w=8 l=0.5
X96 CSoutput.t172 a_n2982_8322.t35 sky130_fd_pr__cap_mim_m3_1 l=12 w=12
X97 gnd.t329 commonsourceibias.t54 commonsourceibias.t55 gnd.t58 sky130_fd_pr__nfet_01v8 ad=1.155 pd=7.33 as=1.155 ps=7.33 w=7 l=1
X98 output.t16 CSoutput.t173 vdd.t133 gnd.t321 sky130_fd_pr__nfet_01v8 ad=0.825 pd=5.33 as=0.825 ps=5.33 w=5 l=1
X99 a_n2903_n3924.t21 plus.t9 a_n8300_8799.t33 gnd.t33 sky130_fd_pr__nfet_01v8 ad=2.73 pd=14.78 as=1.155 ps=7.33 w=7 l=0.7
X100 gnd.t171 gnd.t169 minus.t3 gnd.t170 sky130_fd_pr__nfet_01v8 ad=0.165 pd=1.33 as=0.165 ps=1.33 w=1 l=0.5
X101 gnd.t342 commonsourceibias.t103 CSoutput.t56 gnd.t248 sky130_fd_pr__nfet_01v8 ad=1.155 pd=7.33 as=1.155 ps=7.33 w=7 l=1
X102 a_n2903_n3924.t0 diffpairibias.t17 gnd.t11 gnd.t10 sky130_fd_pr__nfet_01v8 ad=2.73 pd=14.78 as=2.73 ps=14.78 w=7 l=1
X103 vdd.t228 a_n8300_8799.t55 CSoutput.t147 vdd.t198 sky130_fd_pr__pfet_01v8 ad=1.32 pd=8.33 as=1.32 ps=8.33 w=8 l=0.5
X104 gnd.t168 gnd.t166 gnd.t167 gnd.t89 sky130_fd_pr__nfet_01v8 ad=2.73 pd=14.78 as=0 ps=0 w=7 l=1
X105 vdd.t227 a_n8300_8799.t56 CSoutput.t146 vdd.t220 sky130_fd_pr__pfet_01v8 ad=1.32 pd=8.33 as=1.32 ps=8.33 w=8 l=0.5
X106 a_n2982_13878.t54 a_n2982_13878.t53 a_n2804_13878.t26 vdd.t128 sky130_fd_pr__pfet_01v8 ad=1.485 pd=9.33 as=1.485 ps=9.33 w=9 l=0.5
X107 vdd.t226 a_n8300_8799.t57 CSoutput.t110 vdd.t205 sky130_fd_pr__pfet_01v8 ad=1.32 pd=8.33 as=1.32 ps=8.33 w=8 l=0.5
X108 gnd.t52 commonsourceibias.t104 CSoutput.t55 gnd.t24 sky130_fd_pr__nfet_01v8 ad=1.155 pd=7.33 as=1.155 ps=7.33 w=7 l=1
X109 a_n8300_8799.t10 a_n2982_13878.t72 a_n2982_8322.t24 vdd.t117 sky130_fd_pr__pfet_01v8 ad=1.485 pd=9.33 as=1.485 ps=9.33 w=9 l=0.5
X110 a_n2982_13878.t40 a_n2982_13878.t39 a_n2804_13878.t25 vdd.t80 sky130_fd_pr__pfet_01v8 ad=3.51 pd=18.78 as=1.485 ps=9.33 w=9 l=0.5
X111 gnd.t165 gnd.t163 gnd.t164 gnd.t89 sky130_fd_pr__nfet_01v8 ad=2.73 pd=14.78 as=0 ps=0 w=7 l=1
X112 CSoutput.t54 commonsourceibias.t105 gnd.t343 gnd.t241 sky130_fd_pr__nfet_01v8 ad=1.155 pd=7.33 as=1.155 ps=7.33 w=7 l=1
X113 gnd.t312 commonsourceibias.t106 CSoutput.t53 gnd.t46 sky130_fd_pr__nfet_01v8 ad=1.155 pd=7.33 as=1.155 ps=7.33 w=7 l=1
X114 a_n2982_13878.t1 minus.t8 a_n2903_n3924.t3 gnd.t34 sky130_fd_pr__nfet_01v8 ad=1.155 pd=7.33 as=1.155 ps=7.33 w=7 l=0.7
X115 output.t15 CSoutput.t174 vdd.t145 gnd.t322 sky130_fd_pr__nfet_01v8 ad=0.825 pd=5.33 as=0.825 ps=5.33 w=5 l=1
X116 vdd.t69 vdd.t67 vdd.t68 vdd.t57 sky130_fd_pr__pfet_01v8 ad=3.51 pd=18.78 as=0 ps=0 w=9 l=0.5
X117 gnd.t7 commonsourceibias.t52 commonsourceibias.t53 gnd.t6 sky130_fd_pr__nfet_01v8 ad=1.155 pd=7.33 as=1.155 ps=7.33 w=7 l=1
X118 gnd.t308 commonsourceibias.t107 CSoutput.t52 gnd.t61 sky130_fd_pr__nfet_01v8 ad=1.155 pd=7.33 as=1.155 ps=7.33 w=7 l=1
X119 CSoutput.t109 a_n8300_8799.t58 vdd.t225 vdd.t165 sky130_fd_pr__pfet_01v8 ad=1.32 pd=8.33 as=1.32 ps=8.33 w=8 l=0.5
X120 vdd.t66 vdd.t63 vdd.t65 vdd.t64 sky130_fd_pr__pfet_01v8 ad=3.51 pd=18.78 as=0 ps=0 w=9 l=0.5
X121 output.t1 outputibias.t9 gnd.t236 gnd.t235 sky130_fd_pr__nfet_01v8 ad=2.34 pd=12.78 as=2.34 ps=12.78 w=6 l=2
X122 gnd.t162 gnd.t160 gnd.t161 gnd.t107 sky130_fd_pr__nfet_01v8 ad=2.73 pd=14.78 as=0 ps=0 w=7 l=0.7
X123 a_n2804_13878.t24 a_n2982_13878.t31 a_n2982_13878.t32 vdd.t90 sky130_fd_pr__pfet_01v8 ad=1.485 pd=9.33 as=3.51 ps=18.78 w=9 l=0.5
X124 a_n2903_n3924.t16 minus.t9 a_n2982_13878.t10 gnd.t272 sky130_fd_pr__nfet_01v8 ad=1.155 pd=7.33 as=1.155 ps=7.33 w=7 l=0.7
X125 CSoutput.t108 a_n8300_8799.t59 vdd.t224 vdd.t148 sky130_fd_pr__pfet_01v8 ad=1.32 pd=8.33 as=1.32 ps=8.33 w=8 l=0.5
X126 CSoutput.t175 a_n2982_8322.t34 sky130_fd_pr__cap_mim_m3_1 l=12 w=12
X127 vdd.t223 a_n8300_8799.t60 CSoutput.t115 vdd.t220 sky130_fd_pr__pfet_01v8 ad=1.32 pd=8.33 as=1.32 ps=8.33 w=8 l=0.5
X128 vdd.t127 a_n2982_13878.t73 a_n2982_8322.t7 vdd.t126 sky130_fd_pr__pfet_01v8 ad=1.485 pd=9.33 as=1.485 ps=9.33 w=9 l=0.5
X129 a_n2982_13878.t38 a_n2982_13878.t37 a_n2804_13878.t23 vdd.t88 sky130_fd_pr__pfet_01v8 ad=1.485 pd=9.33 as=1.485 ps=9.33 w=9 l=0.5
X130 vdd.t62 vdd.t60 vdd.t61 vdd.t37 sky130_fd_pr__pfet_01v8 ad=3.12 pd=16.78 as=0 ps=0 w=8 l=0.5
X131 a_n2982_8322.t6 a_n2982_13878.t74 vdd.t125 vdd.t124 sky130_fd_pr__pfet_01v8 ad=1.485 pd=9.33 as=1.485 ps=9.33 w=9 l=0.5
X132 gnd.t54 commonsourceibias.t108 CSoutput.t51 gnd.t53 sky130_fd_pr__nfet_01v8 ad=2.73 pd=14.78 as=1.155 ps=7.33 w=7 l=1
X133 a_n2903_n3924.t1 diffpairibias.t18 gnd.t32 gnd.t31 sky130_fd_pr__nfet_01v8 ad=2.73 pd=14.78 as=2.73 ps=14.78 w=7 l=1
X134 output.t14 CSoutput.t176 vdd.t141 gnd.t344 sky130_fd_pr__nfet_01v8 ad=0.825 pd=5.33 as=0.825 ps=5.33 w=5 l=1
X135 CSoutput.t114 a_n8300_8799.t61 vdd.t222 vdd.t192 sky130_fd_pr__pfet_01v8 ad=1.32 pd=8.33 as=1.32 ps=8.33 w=8 l=0.5
X136 vdd.t140 CSoutput.t177 output.t13 gnd.t345 sky130_fd_pr__nfet_01v8 ad=0.825 pd=5.33 as=0.825 ps=5.33 w=5 l=1
X137 gnd.t331 commonsourceibias.t109 CSoutput.t50 gnd.t200 sky130_fd_pr__nfet_01v8 ad=1.155 pd=7.33 as=1.155 ps=7.33 w=7 l=1
X138 gnd.t225 commonsourceibias.t50 commonsourceibias.t51 gnd.t38 sky130_fd_pr__nfet_01v8 ad=1.155 pd=7.33 as=1.155 ps=7.33 w=7 l=1
X139 CSoutput.t49 commonsourceibias.t110 gnd.t333 gnd.t63 sky130_fd_pr__nfet_01v8 ad=1.155 pd=7.33 as=1.155 ps=7.33 w=7 l=1
X140 gnd.t334 commonsourceibias.t111 CSoutput.t48 gnd.t58 sky130_fd_pr__nfet_01v8 ad=1.155 pd=7.33 as=1.155 ps=7.33 w=7 l=1
X141 CSoutput.t47 commonsourceibias.t112 gnd.t309 gnd.t297 sky130_fd_pr__nfet_01v8 ad=1.155 pd=7.33 as=2.73 ps=14.78 w=7 l=1
X142 CSoutput.t46 commonsourceibias.t113 gnd.t338 gnd.t29 sky130_fd_pr__nfet_01v8 ad=1.155 pd=7.33 as=1.155 ps=7.33 w=7 l=1
X143 a_n2903_n3924.t37 minus.t10 a_n2982_13878.t61 gnd.t314 sky130_fd_pr__nfet_01v8 ad=1.155 pd=7.33 as=1.155 ps=7.33 w=7 l=0.7
X144 CSoutput.t178 a_n2982_8322.t33 sky130_fd_pr__cap_mim_m3_1 l=12 w=12
X145 gnd.t159 gnd.t157 plus.t0 gnd.t158 sky130_fd_pr__nfet_01v8 ad=0.165 pd=1.33 as=0.39 ps=2.78 w=1 l=0.5
X146 vdd.t123 a_n2982_13878.t75 a_n2804_13878.t6 vdd.t122 sky130_fd_pr__pfet_01v8 ad=1.485 pd=9.33 as=1.485 ps=9.33 w=9 l=0.5
X147 a_n2903_n3924.t22 plus.t10 a_n8300_8799.t32 gnd.t243 sky130_fd_pr__nfet_01v8 ad=1.155 pd=7.33 as=1.155 ps=7.33 w=7 l=0.7
X148 vdd.t59 vdd.t56 vdd.t58 vdd.t57 sky130_fd_pr__pfet_01v8 ad=3.51 pd=18.78 as=0 ps=0 w=9 l=0.5
X149 gnd.t156 gnd.t154 gnd.t155 gnd.t89 sky130_fd_pr__nfet_01v8 ad=2.73 pd=14.78 as=0 ps=0 w=7 l=1
X150 a_n2804_13878.t22 a_n2982_13878.t15 a_n2982_13878.t16 vdd.t121 sky130_fd_pr__pfet_01v8 ad=1.485 pd=9.33 as=1.485 ps=9.33 w=9 l=0.5
X151 vdd.t221 a_n8300_8799.t62 CSoutput.t113 vdd.t220 sky130_fd_pr__pfet_01v8 ad=1.32 pd=8.33 as=1.32 ps=8.33 w=8 l=0.5
X152 vdd.t219 a_n8300_8799.t63 CSoutput.t159 vdd.t205 sky130_fd_pr__pfet_01v8 ad=1.32 pd=8.33 as=1.32 ps=8.33 w=8 l=0.5
X153 a_n2982_8322.t23 a_n2982_13878.t76 a_n8300_8799.t0 vdd.t107 sky130_fd_pr__pfet_01v8 ad=1.485 pd=9.33 as=1.485 ps=9.33 w=9 l=0.5
X154 a_n8300_8799.t31 plus.t11 a_n2903_n3924.t24 gnd.t65 sky130_fd_pr__nfet_01v8 ad=1.155 pd=7.33 as=2.73 ps=14.78 w=7 l=0.7
X155 a_n8300_8799.t30 plus.t12 a_n2903_n3924.t25 gnd.t287 sky130_fd_pr__nfet_01v8 ad=1.155 pd=7.33 as=2.73 ps=14.78 w=7 l=0.7
X156 vdd.t55 vdd.t53 vdd.t54 vdd.t19 sky130_fd_pr__pfet_01v8 ad=3.12 pd=16.78 as=0 ps=0 w=8 l=0.5
X157 vdd.t52 vdd.t49 vdd.t51 vdd.t50 sky130_fd_pr__pfet_01v8 ad=3.51 pd=18.78 as=0 ps=0 w=9 l=0.5
X158 a_n2982_8322.t5 a_n2982_13878.t77 vdd.t120 vdd.t119 sky130_fd_pr__pfet_01v8 ad=3.51 pd=18.78 as=1.485 ps=9.33 w=9 l=0.5
X159 a_n8300_8799.t21 a_n2982_13878.t78 a_n2982_8322.t22 vdd.t87 sky130_fd_pr__pfet_01v8 ad=1.485 pd=9.33 as=1.485 ps=9.33 w=9 l=0.5
X160 CSoutput.t158 a_n8300_8799.t64 vdd.t218 vdd.t173 sky130_fd_pr__pfet_01v8 ad=1.32 pd=8.33 as=1.32 ps=8.33 w=8 l=0.5
X161 diffpairibias.t11 diffpairibias.t10 gnd.t349 gnd.t348 sky130_fd_pr__nfet_01v8 ad=2.73 pd=14.78 as=2.73 ps=14.78 w=7 l=1
X162 vdd.t217 a_n8300_8799.t65 CSoutput.t136 vdd.t216 sky130_fd_pr__pfet_01v8 ad=1.32 pd=8.33 as=1.32 ps=8.33 w=8 l=0.5
X163 a_n2982_13878.t9 minus.t11 a_n2903_n3924.t15 gnd.t266 sky130_fd_pr__nfet_01v8 ad=1.155 pd=7.33 as=1.155 ps=7.33 w=7 l=0.7
X164 a_n2982_13878.t36 a_n2982_13878.t35 a_n2804_13878.t21 vdd.t99 sky130_fd_pr__pfet_01v8 ad=1.485 pd=9.33 as=1.485 ps=9.33 w=9 l=0.5
X165 CSoutput.t45 commonsourceibias.t114 gnd.t310 gnd.t69 sky130_fd_pr__nfet_01v8 ad=1.155 pd=7.33 as=1.155 ps=7.33 w=7 l=1
X166 a_n8300_8799.t20 a_n2982_13878.t79 a_n2982_8322.t21 vdd.t118 sky130_fd_pr__pfet_01v8 ad=1.485 pd=9.33 as=1.485 ps=9.33 w=9 l=0.5
X167 commonsourceibias.t49 commonsourceibias.t48 gnd.t45 gnd.t44 sky130_fd_pr__nfet_01v8 ad=1.155 pd=7.33 as=1.155 ps=7.33 w=7 l=1
X168 output.t12 CSoutput.t179 vdd.t139 gnd.t293 sky130_fd_pr__nfet_01v8 ad=0.825 pd=5.33 as=0.825 ps=5.33 w=5 l=1
X169 gnd.t237 commonsourceibias.t115 CSoutput.t44 gnd.t12 sky130_fd_pr__nfet_01v8 ad=1.155 pd=7.33 as=1.155 ps=7.33 w=7 l=1
X170 a_n2804_13878.t20 a_n2982_13878.t43 a_n2982_13878.t44 vdd.t117 sky130_fd_pr__pfet_01v8 ad=1.485 pd=9.33 as=1.485 ps=9.33 w=9 l=0.5
X171 a_n2903_n3924.t5 minus.t12 a_n2982_13878.t3 gnd.t36 sky130_fd_pr__nfet_01v8 ad=1.155 pd=7.33 as=1.155 ps=7.33 w=7 l=0.7
X172 gnd.t153 gnd.t150 gnd.t152 gnd.t151 sky130_fd_pr__nfet_01v8 ad=1.95 pd=10.78 as=0 ps=0 w=5 l=1
X173 CSoutput.t43 commonsourceibias.t116 gnd.t242 gnd.t241 sky130_fd_pr__nfet_01v8 ad=1.155 pd=7.33 as=1.155 ps=7.33 w=7 l=1
X174 minus.t2 gnd.t147 gnd.t149 gnd.t148 sky130_fd_pr__nfet_01v8 ad=0.165 pd=1.33 as=0.165 ps=1.33 w=1 l=0.5
X175 vdd.t48 vdd.t46 vdd.t47 vdd.t5 sky130_fd_pr__pfet_01v8 ad=3.51 pd=18.78 as=0 ps=0 w=9 l=0.5
X176 output.t11 CSoutput.t180 vdd.t146 gnd.t294 sky130_fd_pr__nfet_01v8 ad=0.825 pd=5.33 as=0.825 ps=5.33 w=5 l=1
X177 CSoutput.t135 a_n8300_8799.t66 vdd.t215 vdd.t209 sky130_fd_pr__pfet_01v8 ad=1.32 pd=8.33 as=1.32 ps=8.33 w=8 l=0.5
X178 CSoutput.t42 commonsourceibias.t117 gnd.t353 gnd.t42 sky130_fd_pr__nfet_01v8 ad=1.155 pd=7.33 as=1.155 ps=7.33 w=7 l=1
X179 gnd.t146 gnd.t144 gnd.t145 gnd.t103 sky130_fd_pr__nfet_01v8 ad=2.73 pd=14.78 as=0 ps=0 w=7 l=1
X180 vdd.t116 a_n2982_13878.t80 a_n2982_8322.t4 vdd.t115 sky130_fd_pr__pfet_01v8 ad=1.485 pd=9.33 as=3.51 ps=18.78 w=9 l=0.5
X181 a_n2804_13878.t19 a_n2982_13878.t19 a_n2982_13878.t20 vdd.t114 sky130_fd_pr__pfet_01v8 ad=1.485 pd=9.33 as=1.485 ps=9.33 w=9 l=0.5
X182 outputibias.t7 outputibias.t6 gnd.t258 gnd.t257 sky130_fd_pr__nfet_01v8 ad=2.34 pd=12.78 as=2.34 ps=12.78 w=6 l=2
X183 vdd.t214 a_n8300_8799.t67 CSoutput.t125 vdd.t207 sky130_fd_pr__pfet_01v8 ad=1.32 pd=8.33 as=1.32 ps=8.33 w=8 l=0.5
X184 gnd.t341 commonsourceibias.t118 CSoutput.t41 gnd.t22 sky130_fd_pr__nfet_01v8 ad=1.155 pd=7.33 as=1.155 ps=7.33 w=7 l=1
X185 gnd.t346 commonsourceibias.t119 CSoutput.t40 gnd.t0 sky130_fd_pr__nfet_01v8 ad=1.155 pd=7.33 as=1.155 ps=7.33 w=7 l=1
X186 a_n2982_13878.t28 a_n2982_13878.t27 a_n2804_13878.t18 vdd.t84 sky130_fd_pr__pfet_01v8 ad=1.485 pd=9.33 as=1.485 ps=9.33 w=9 l=0.5
X187 commonsourceibias.t47 commonsourceibias.t46 gnd.t291 gnd.t63 sky130_fd_pr__nfet_01v8 ad=1.155 pd=7.33 as=1.155 ps=7.33 w=7 l=1
X188 gnd.t224 commonsourceibias.t120 CSoutput.t39 gnd.t16 sky130_fd_pr__nfet_01v8 ad=2.73 pd=14.78 as=1.155 ps=7.33 w=7 l=1
X189 outputibias.t5 outputibias.t4 gnd.t253 gnd.t252 sky130_fd_pr__nfet_01v8 ad=2.34 pd=12.78 as=2.34 ps=12.78 w=6 l=2
X190 vdd.t213 a_n8300_8799.t68 CSoutput.t124 vdd.t175 sky130_fd_pr__pfet_01v8 ad=1.32 pd=8.33 as=1.32 ps=8.33 w=8 l=0.5
X191 CSoutput.t38 commonsourceibias.t121 gnd.t197 gnd.t71 sky130_fd_pr__nfet_01v8 ad=1.155 pd=7.33 as=1.155 ps=7.33 w=7 l=1
X192 a_n2903_n3924.t10 diffpairibias.t19 gnd.t209 gnd.t208 sky130_fd_pr__nfet_01v8 ad=2.73 pd=14.78 as=2.73 ps=14.78 w=7 l=1
X193 gnd.t143 gnd.t140 gnd.t142 gnd.t141 sky130_fd_pr__nfet_01v8 ad=2.73 pd=14.78 as=0 ps=0 w=7 l=1
X194 a_n2903_n3924.t14 diffpairibias.t20 gnd.t265 gnd.t264 sky130_fd_pr__nfet_01v8 ad=2.73 pd=14.78 as=2.73 ps=14.78 w=7 l=1
X195 commonsourceibias.t45 commonsourceibias.t44 gnd.t238 gnd.t29 sky130_fd_pr__nfet_01v8 ad=1.155 pd=7.33 as=1.155 ps=7.33 w=7 l=1
X196 vdd.t212 a_n8300_8799.t69 CSoutput.t123 vdd.t198 sky130_fd_pr__pfet_01v8 ad=1.32 pd=8.33 as=1.32 ps=8.33 w=8 l=0.5
X197 gnd.t139 gnd.t137 gnd.t138 gnd.t111 sky130_fd_pr__nfet_01v8 ad=2.73 pd=14.78 as=0 ps=0 w=7 l=1
X198 gnd.t136 gnd.t134 gnd.t135 gnd.t103 sky130_fd_pr__nfet_01v8 ad=2.73 pd=14.78 as=0 ps=0 w=7 l=1
X199 vdd.t45 vdd.t43 vdd.t44 vdd.t19 sky130_fd_pr__pfet_01v8 ad=3.12 pd=16.78 as=0 ps=0 w=8 l=0.5
X200 vdd.t132 CSoutput.t181 output.t10 gnd.t295 sky130_fd_pr__nfet_01v8 ad=0.825 pd=5.33 as=0.825 ps=5.33 w=5 l=1
X201 CSoutput.t37 commonsourceibias.t122 gnd.t250 gnd.t69 sky130_fd_pr__nfet_01v8 ad=1.155 pd=7.33 as=1.155 ps=7.33 w=7 l=1
X202 CSoutput.t36 commonsourceibias.t123 gnd.t281 gnd.t48 sky130_fd_pr__nfet_01v8 ad=1.155 pd=7.33 as=1.155 ps=7.33 w=7 l=1
X203 a_n2804_13878.t17 a_n2982_13878.t45 a_n2982_13878.t46 vdd.t89 sky130_fd_pr__pfet_01v8 ad=1.485 pd=9.33 as=1.485 ps=9.33 w=9 l=0.5
X204 a_n2982_8322.t20 a_n2982_13878.t81 a_n8300_8799.t18 vdd.t113 sky130_fd_pr__pfet_01v8 ad=1.485 pd=9.33 as=1.485 ps=9.33 w=9 l=0.5
X205 CSoutput.t164 a_n8300_8799.t70 vdd.t211 vdd.t150 sky130_fd_pr__pfet_01v8 ad=1.32 pd=8.33 as=1.32 ps=8.33 w=8 l=0.5
X206 commonsourceibias.t43 commonsourceibias.t42 gnd.t5 gnd.t4 sky130_fd_pr__nfet_01v8 ad=1.155 pd=7.33 as=1.155 ps=7.33 w=7 l=1
X207 gnd.t201 commonsourceibias.t40 commonsourceibias.t41 gnd.t200 sky130_fd_pr__nfet_01v8 ad=1.155 pd=7.33 as=1.155 ps=7.33 w=7 l=1
X208 vdd.t134 CSoutput.t182 output.t9 gnd.t324 sky130_fd_pr__nfet_01v8 ad=0.825 pd=5.33 as=0.825 ps=5.33 w=5 l=1
X209 diffpairibias.t9 diffpairibias.t8 gnd.t357 gnd.t356 sky130_fd_pr__nfet_01v8 ad=2.73 pd=14.78 as=2.73 ps=14.78 w=7 l=1
X210 a_n2804_13878.t5 a_n2982_13878.t82 vdd.t112 vdd.t111 sky130_fd_pr__pfet_01v8 ad=1.485 pd=9.33 as=1.485 ps=9.33 w=9 l=0.5
X211 vdd.t110 a_n2982_13878.t83 a_n2804_13878.t4 vdd.t109 sky130_fd_pr__pfet_01v8 ad=1.485 pd=9.33 as=1.485 ps=9.33 w=9 l=0.5
X212 CSoutput.t35 commonsourceibias.t124 gnd.t245 gnd.t71 sky130_fd_pr__nfet_01v8 ad=1.155 pd=7.33 as=1.155 ps=7.33 w=7 l=1
X213 CSoutput.t34 commonsourceibias.t125 gnd.t9 gnd.t8 sky130_fd_pr__nfet_01v8 ad=1.155 pd=7.33 as=1.155 ps=7.33 w=7 l=1
X214 CSoutput.t163 a_n8300_8799.t71 vdd.t210 vdd.t209 sky130_fd_pr__pfet_01v8 ad=1.32 pd=8.33 as=1.32 ps=8.33 w=8 l=0.5
X215 gnd.t13 commonsourceibias.t38 commonsourceibias.t39 gnd.t12 sky130_fd_pr__nfet_01v8 ad=1.155 pd=7.33 as=1.155 ps=7.33 w=7 l=1
X216 vdd.t208 a_n8300_8799.t72 CSoutput.t119 vdd.t207 sky130_fd_pr__pfet_01v8 ad=1.32 pd=8.33 as=1.32 ps=8.33 w=8 l=0.5
X217 gnd.t133 gnd.t130 gnd.t132 gnd.t131 sky130_fd_pr__nfet_01v8 ad=2.73 pd=14.78 as=0 ps=0 w=7 l=0.7
X218 gnd.t129 gnd.t127 plus.t4 gnd.t128 sky130_fd_pr__nfet_01v8 ad=0.165 pd=1.33 as=0.165 ps=1.33 w=1 l=0.5
X219 vdd.t206 a_n8300_8799.t73 CSoutput.t118 vdd.t205 sky130_fd_pr__pfet_01v8 ad=1.32 pd=8.33 as=1.32 ps=8.33 w=8 l=0.5
X220 commonsourceibias.t37 commonsourceibias.t36 gnd.t313 gnd.t233 sky130_fd_pr__nfet_01v8 ad=1.155 pd=7.33 as=1.155 ps=7.33 w=7 l=1
X221 outputibias.t3 outputibias.t2 gnd.t352 gnd.t351 sky130_fd_pr__nfet_01v8 ad=2.34 pd=12.78 as=2.34 ps=12.78 w=6 l=2
X222 CSoutput.t107 a_n8300_8799.t74 vdd.t204 vdd.t186 sky130_fd_pr__pfet_01v8 ad=1.32 pd=8.33 as=1.32 ps=8.33 w=8 l=0.5
X223 a_n2804_13878.t16 a_n2982_13878.t51 a_n2982_13878.t52 vdd.t108 sky130_fd_pr__pfet_01v8 ad=1.485 pd=9.33 as=1.485 ps=9.33 w=9 l=0.5
X224 a_n2903_n3924.t9 minus.t13 a_n2982_13878.t6 gnd.t66 sky130_fd_pr__nfet_01v8 ad=1.155 pd=7.33 as=1.155 ps=7.33 w=7 l=0.7
X225 gnd.t296 commonsourceibias.t126 CSoutput.t33 gnd.t14 sky130_fd_pr__nfet_01v8 ad=1.155 pd=7.33 as=1.155 ps=7.33 w=7 l=1
X226 commonsourceibias.t35 commonsourceibias.t34 gnd.t26 gnd.t2 sky130_fd_pr__nfet_01v8 ad=1.155 pd=7.33 as=2.73 ps=14.78 w=7 l=1
X227 vdd.t203 a_n8300_8799.t75 CSoutput.t106 vdd.t175 sky130_fd_pr__pfet_01v8 ad=1.32 pd=8.33 as=1.32 ps=8.33 w=8 l=0.5
X228 gnd.t218 commonsourceibias.t32 commonsourceibias.t33 gnd.t206 sky130_fd_pr__nfet_01v8 ad=1.155 pd=7.33 as=1.155 ps=7.33 w=7 l=1
X229 a_n2982_8322.t19 a_n2982_13878.t84 a_n8300_8799.t17 vdd.t76 sky130_fd_pr__pfet_01v8 ad=1.485 pd=9.33 as=1.485 ps=9.33 w=9 l=0.5
X230 CSoutput.t32 commonsourceibias.t127 gnd.t226 gnd.t56 sky130_fd_pr__nfet_01v8 ad=1.155 pd=7.33 as=1.155 ps=7.33 w=7 l=1
X231 CSoutput.t105 a_n8300_8799.t76 vdd.t202 vdd.t177 sky130_fd_pr__pfet_01v8 ad=1.32 pd=8.33 as=3.12 ps=16.78 w=8 l=0.5
X232 a_n2982_13878.t18 a_n2982_13878.t17 a_n2804_13878.t15 vdd.t107 sky130_fd_pr__pfet_01v8 ad=1.485 pd=9.33 as=1.485 ps=9.33 w=9 l=0.5
X233 diffpairibias.t7 diffpairibias.t6 gnd.t232 gnd.t231 sky130_fd_pr__nfet_01v8 ad=2.73 pd=14.78 as=2.73 ps=14.78 w=7 l=1
X234 vdd.t201 a_n8300_8799.t77 CSoutput.t138 vdd.t200 sky130_fd_pr__pfet_01v8 ad=3.12 pd=16.78 as=1.32 ps=8.33 w=8 l=0.5
X235 commonsourceibias.t31 commonsourceibias.t30 gnd.t260 gnd.t259 sky130_fd_pr__nfet_01v8 ad=1.155 pd=7.33 as=1.155 ps=7.33 w=7 l=1
X236 a_n2982_13878.t2 minus.t14 a_n2903_n3924.t4 gnd.t35 sky130_fd_pr__nfet_01v8 ad=1.155 pd=7.33 as=1.155 ps=7.33 w=7 l=0.7
X237 a_n2804_13878.t14 a_n2982_13878.t57 a_n2982_13878.t58 vdd.t106 sky130_fd_pr__pfet_01v8 ad=1.485 pd=9.33 as=1.485 ps=9.33 w=9 l=0.5
X238 a_n2982_13878.t62 minus.t15 a_n2903_n3924.t38 gnd.t316 sky130_fd_pr__nfet_01v8 ad=1.155 pd=7.33 as=1.155 ps=7.33 w=7 l=0.7
X239 vdd.t42 vdd.t40 vdd.t41 vdd.t23 sky130_fd_pr__pfet_01v8 ad=3.12 pd=16.78 as=0 ps=0 w=8 l=0.5
X240 vdd.t105 a_n2982_13878.t85 a_n2982_8322.t3 vdd.t104 sky130_fd_pr__pfet_01v8 ad=1.485 pd=9.33 as=3.51 ps=18.78 w=9 l=0.5
X241 vdd.t199 a_n8300_8799.t78 CSoutput.t137 vdd.t198 sky130_fd_pr__pfet_01v8 ad=1.32 pd=8.33 as=1.32 ps=8.33 w=8 l=0.5
X242 a_n8300_8799.t29 plus.t13 a_n2903_n3924.t31 gnd.t288 sky130_fd_pr__nfet_01v8 ad=1.155 pd=7.33 as=1.155 ps=7.33 w=7 l=0.7
X243 gnd.t15 commonsourceibias.t128 CSoutput.t31 gnd.t14 sky130_fd_pr__nfet_01v8 ad=1.155 pd=7.33 as=1.155 ps=7.33 w=7 l=1
X244 a_n2903_n3924.t39 minus.t16 a_n2982_13878.t63 gnd.t315 sky130_fd_pr__nfet_01v8 ad=1.155 pd=7.33 as=1.155 ps=7.33 w=7 l=0.7
X245 CSoutput.t166 a_n8300_8799.t79 vdd.t197 vdd.t189 sky130_fd_pr__pfet_01v8 ad=1.32 pd=8.33 as=1.32 ps=8.33 w=8 l=0.5
X246 gnd.t1 commonsourceibias.t28 commonsourceibias.t29 gnd.t0 sky130_fd_pr__nfet_01v8 ad=1.155 pd=7.33 as=1.155 ps=7.33 w=7 l=1
X247 CSoutput.t30 commonsourceibias.t129 gnd.t298 gnd.t297 sky130_fd_pr__nfet_01v8 ad=1.155 pd=7.33 as=2.73 ps=14.78 w=7 l=1