* NGSPICE file created from opamp664.ext - technology: sky130A

.subckt opamp664 gnd CSoutput output vdd plus minus commonsourceibias outputibias
+ diffpairibias
X0 CSoutput.t191 a_n8964_8799.t36 vdd.t285 vdd.t225 sky130_fd_pr__pfet_01v8 ad=1.32 pd=8.33 as=3.12 ps=16.78 w=8 l=0.5
X1 a_n2472_13878.t27 a_n2650_13878.t43 a_n2650_13878.t44 vdd.t112 sky130_fd_pr__pfet_01v8 ad=1.485 pd=9.33 as=1.485 ps=9.33 w=9 l=0.5
X2 a_n2472_13878.t7 a_n2650_13878.t56 vdd.t97 vdd.t96 sky130_fd_pr__pfet_01v8 ad=1.485 pd=9.33 as=1.485 ps=9.33 w=9 l=0.5
X3 vdd.t284 a_n8964_8799.t37 CSoutput.t190 vdd.t219 sky130_fd_pr__pfet_01v8 ad=1.32 pd=8.33 as=1.32 ps=8.33 w=8 l=0.5
X4 outputibias.t1 outputibias.t0 gnd.t350 gnd.t349 sky130_fd_pr__nfet_01v8 ad=2.34 pd=12.78 as=2.34 ps=12.78 w=6 l=2
X5 CSoutput.t189 a_n8964_8799.t38 vdd.t283 vdd.t130 sky130_fd_pr__pfet_01v8 ad=1.32 pd=8.33 as=1.32 ps=8.33 w=8 l=0.5
X6 a_n3827_n3924.t10 diffpairibias.t20 gnd.t189 gnd.t188 sky130_fd_pr__nfet_01v8 ad=2.73 pd=14.78 as=2.73 ps=14.78 w=7 l=1
X7 gnd.t169 commonsourceibias.t80 CSoutput.t23 gnd.t168 sky130_fd_pr__nfet_01v8 ad=1.155 pd=7.33 as=1.155 ps=7.33 w=7 l=1
X8 gnd.t140 gnd.t138 gnd.t139 gnd.t110 sky130_fd_pr__nfet_01v8 ad=2.73 pd=14.78 as=0 ps=0 w=7 l=1
X9 CSoutput.t188 a_n8964_8799.t39 vdd.t282 vdd.t139 sky130_fd_pr__pfet_01v8 ad=1.32 pd=8.33 as=1.32 ps=8.33 w=8 l=0.5
X10 commonsourceibias.t79 commonsourceibias.t78 gnd.t162 gnd.t161 sky130_fd_pr__nfet_01v8 ad=1.155 pd=7.33 as=2.73 ps=14.78 w=7 l=1
X11 commonsourceibias.t77 commonsourceibias.t76 gnd.t172 gnd.t144 sky130_fd_pr__nfet_01v8 ad=1.155 pd=7.33 as=1.155 ps=7.33 w=7 l=1
X12 gnd.t137 gnd.t135 gnd.t136 gnd.t110 sky130_fd_pr__nfet_01v8 ad=2.73 pd=14.78 as=0 ps=0 w=7 l=1
X13 vdd.t281 a_n8964_8799.t40 CSoutput.t187 vdd.t207 sky130_fd_pr__pfet_01v8 ad=1.32 pd=8.33 as=1.32 ps=8.33 w=8 l=0.5
X14 a_n2650_8322.t27 a_n2650_13878.t57 a_n8964_8799.t10 vdd.t91 sky130_fd_pr__pfet_01v8 ad=1.485 pd=9.33 as=1.485 ps=9.33 w=9 l=0.5
X15 vdd.t106 CSoutput.t200 output.t15 gnd.t252 sky130_fd_pr__nfet_01v8 ad=0.825 pd=5.33 as=0.825 ps=5.33 w=5 l=1
X16 gnd.t134 gnd.t132 gnd.t133 gnd.t56 sky130_fd_pr__nfet_01v8 ad=2.73 pd=14.78 as=0 ps=0 w=7 l=1
X17 CSoutput.t24 commonsourceibias.t81 gnd.t171 gnd.t170 sky130_fd_pr__nfet_01v8 ad=1.155 pd=7.33 as=1.155 ps=7.33 w=7 l=1
X18 CSoutput.t186 a_n8964_8799.t41 vdd.t280 vdd.t169 sky130_fd_pr__pfet_01v8 ad=1.32 pd=8.33 as=1.32 ps=8.33 w=8 l=0.5
X19 vdd.t279 a_n8964_8799.t42 CSoutput.t185 vdd.t265 sky130_fd_pr__pfet_01v8 ad=1.32 pd=8.33 as=1.32 ps=8.33 w=8 l=0.5
X20 CSoutput.t184 a_n8964_8799.t43 vdd.t278 vdd.t178 sky130_fd_pr__pfet_01v8 ad=1.32 pd=8.33 as=1.32 ps=8.33 w=8 l=0.5
X21 gnd.t163 commonsourceibias.t74 commonsourceibias.t75 gnd.t152 sky130_fd_pr__nfet_01v8 ad=2.73 pd=14.78 as=1.155 ps=7.33 w=7 l=1
X22 CSoutput.t19 commonsourceibias.t82 gnd.t158 gnd.t157 sky130_fd_pr__nfet_01v8 ad=1.155 pd=7.33 as=1.155 ps=7.33 w=7 l=1
X23 a_n8964_8799.t17 plus.t5 a_n3827_n3924.t36 gnd.t4 sky130_fd_pr__nfet_01v8 ad=1.155 pd=7.33 as=1.155 ps=7.33 w=7 l=0.5
X24 vdd.t277 a_n8964_8799.t44 CSoutput.t183 vdd.t265 sky130_fd_pr__pfet_01v8 ad=1.32 pd=8.33 as=1.32 ps=8.33 w=8 l=0.5
X25 vdd.t276 a_n8964_8799.t45 CSoutput.t182 vdd.t212 sky130_fd_pr__pfet_01v8 ad=1.32 pd=8.33 as=1.32 ps=8.33 w=8 l=0.5
X26 gnd.t131 gnd.t129 gnd.t130 gnd.t56 sky130_fd_pr__nfet_01v8 ad=2.73 pd=14.78 as=0 ps=0 w=7 l=1
X27 commonsourceibias.t73 commonsourceibias.t72 gnd.t173 gnd.t157 sky130_fd_pr__nfet_01v8 ad=1.155 pd=7.33 as=1.155 ps=7.33 w=7 l=1
X28 vdd.t107 CSoutput.t201 output.t14 gnd.t251 sky130_fd_pr__nfet_01v8 ad=0.825 pd=5.33 as=0.825 ps=5.33 w=5 l=1
X29 a_n8964_8799.t11 a_n2650_13878.t58 a_n2650_8322.t26 vdd.t92 sky130_fd_pr__pfet_01v8 ad=1.485 pd=9.33 as=1.485 ps=9.33 w=9 l=0.5
X30 CSoutput.t20 commonsourceibias.t83 gnd.t160 gnd.t159 sky130_fd_pr__nfet_01v8 ad=1.155 pd=7.33 as=1.155 ps=7.33 w=7 l=1
X31 vdd.t275 a_n8964_8799.t46 CSoutput.t181 vdd.t135 sky130_fd_pr__pfet_01v8 ad=1.32 pd=8.33 as=1.32 ps=8.33 w=8 l=0.5
X32 vdd.t274 a_n8964_8799.t47 CSoutput.t180 vdd.t241 sky130_fd_pr__pfet_01v8 ad=1.32 pd=8.33 as=1.32 ps=8.33 w=8 l=0.5
X33 a_n8964_8799.t21 a_n2650_13878.t59 a_n2650_8322.t25 vdd.t2 sky130_fd_pr__pfet_01v8 ad=1.485 pd=9.33 as=3.51 ps=18.78 w=9 l=0.5
X34 a_n8964_8799.t4 plus.t6 a_n3827_n3924.t23 gnd.t220 sky130_fd_pr__nfet_01v8 ad=1.155 pd=7.33 as=1.155 ps=7.33 w=7 l=0.5
X35 gnd.t128 gnd.t125 gnd.t127 gnd.t126 sky130_fd_pr__nfet_01v8 ad=1.95 pd=10.78 as=0 ps=0 w=5 l=1
X36 commonsourceibias.t71 commonsourceibias.t70 gnd.t314 gnd.t166 sky130_fd_pr__nfet_01v8 ad=1.155 pd=7.33 as=1.155 ps=7.33 w=7 l=1
X37 CSoutput.t179 a_n8964_8799.t48 vdd.t273 vdd.t225 sky130_fd_pr__pfet_01v8 ad=1.32 pd=8.33 as=3.12 ps=16.78 w=8 l=0.5
X38 a_n3827_n3924.t9 diffpairibias.t21 gnd.t181 gnd.t180 sky130_fd_pr__nfet_01v8 ad=2.73 pd=14.78 as=2.73 ps=14.78 w=7 l=1
X39 CSoutput.t54 commonsourceibias.t84 gnd.t265 gnd.t264 sky130_fd_pr__nfet_01v8 ad=1.155 pd=7.33 as=1.155 ps=7.33 w=7 l=1
X40 a_n3827_n3924.t15 minus.t5 a_n2650_13878.t3 gnd.t205 sky130_fd_pr__nfet_01v8 ad=1.155 pd=7.33 as=1.155 ps=7.33 w=7 l=0.5
X41 CSoutput.t178 a_n8964_8799.t49 vdd.t272 vdd.t191 sky130_fd_pr__pfet_01v8 ad=1.32 pd=8.33 as=1.32 ps=8.33 w=8 l=0.5
X42 gnd.t124 gnd.t122 plus.t4 gnd.t123 sky130_fd_pr__nfet_01v8 ad=0.165 pd=1.33 as=0.39 ps=2.78 w=1 l=0.5
X43 gnd.t267 commonsourceibias.t85 CSoutput.t55 gnd.t266 sky130_fd_pr__nfet_01v8 ad=1.155 pd=7.33 as=1.155 ps=7.33 w=7 l=1
X44 a_n3827_n3924.t11 plus.t7 a_n8964_8799.t0 gnd.t182 sky130_fd_pr__nfet_01v8 ad=2.73 pd=14.78 as=1.155 ps=7.33 w=7 l=0.5
X45 vdd.t271 a_n8964_8799.t50 CSoutput.t177 vdd.t135 sky130_fd_pr__pfet_01v8 ad=1.32 pd=8.33 as=1.32 ps=8.33 w=8 l=0.5
X46 gnd.t121 gnd.t119 gnd.t120 gnd.t48 sky130_fd_pr__nfet_01v8 ad=2.73 pd=14.78 as=0 ps=0 w=7 l=1
X47 gnd.t262 commonsourceibias.t68 commonsourceibias.t69 gnd.t150 sky130_fd_pr__nfet_01v8 ad=1.155 pd=7.33 as=1.155 ps=7.33 w=7 l=1
X48 a_n2650_13878.t53 minus.t6 a_n3827_n3924.t34 gnd.t288 sky130_fd_pr__nfet_01v8 ad=1.155 pd=7.33 as=2.73 ps=14.78 w=7 l=0.5
X49 a_n3827_n3924.t22 minus.t7 a_n2650_13878.t8 gnd.t219 sky130_fd_pr__nfet_01v8 ad=1.155 pd=7.33 as=1.155 ps=7.33 w=7 l=0.5
X50 CSoutput.t176 a_n8964_8799.t51 vdd.t270 vdd.t139 sky130_fd_pr__pfet_01v8 ad=1.32 pd=8.33 as=1.32 ps=8.33 w=8 l=0.5
X51 commonsourceibias.t67 commonsourceibias.t66 gnd.t315 gnd.t228 sky130_fd_pr__nfet_01v8 ad=1.155 pd=7.33 as=1.155 ps=7.33 w=7 l=1
X52 vdd.t78 vdd.t76 vdd.t77 vdd.t12 sky130_fd_pr__pfet_01v8 ad=3.51 pd=18.78 as=0 ps=0 w=9 l=0.5
X53 vdd.t269 a_n8964_8799.t52 CSoutput.t175 vdd.t207 sky130_fd_pr__pfet_01v8 ad=1.32 pd=8.33 as=1.32 ps=8.33 w=8 l=0.5
X54 gnd.t270 commonsourceibias.t86 CSoutput.t57 gnd.t269 sky130_fd_pr__nfet_01v8 ad=1.155 pd=7.33 as=1.155 ps=7.33 w=7 l=1
X55 a_n2472_13878.t26 a_n2650_13878.t21 a_n2650_13878.t22 vdd.t117 sky130_fd_pr__pfet_01v8 ad=1.485 pd=9.33 as=1.485 ps=9.33 w=9 l=0.5
X56 gnd.t272 commonsourceibias.t87 CSoutput.t58 gnd.t271 sky130_fd_pr__nfet_01v8 ad=1.155 pd=7.33 as=1.155 ps=7.33 w=7 l=1
X57 a_n2650_13878.t42 a_n2650_13878.t41 a_n2472_13878.t25 vdd.t80 sky130_fd_pr__pfet_01v8 ad=1.485 pd=9.33 as=1.485 ps=9.33 w=9 l=0.5
X58 gnd.t256 commonsourceibias.t88 CSoutput.t48 gnd.t255 sky130_fd_pr__nfet_01v8 ad=1.155 pd=7.33 as=1.155 ps=7.33 w=7 l=1
X59 CSoutput.t174 a_n8964_8799.t53 vdd.t268 vdd.t178 sky130_fd_pr__pfet_01v8 ad=1.32 pd=8.33 as=1.32 ps=8.33 w=8 l=0.5
X60 vdd.t75 vdd.t73 vdd.t74 vdd.t50 sky130_fd_pr__pfet_01v8 ad=3.51 pd=18.78 as=0 ps=0 w=9 l=0.5
X61 output.t13 CSoutput.t202 vdd.t85 gnd.t250 sky130_fd_pr__nfet_01v8 ad=0.825 pd=5.33 as=0.825 ps=5.33 w=5 l=1
X62 a_n3827_n3924.t18 minus.t8 a_n2650_13878.t5 gnd.t210 sky130_fd_pr__nfet_01v8 ad=1.155 pd=7.33 as=1.155 ps=7.33 w=7 l=0.5
X63 vdd.t267 a_n8964_8799.t54 CSoutput.t173 vdd.t212 sky130_fd_pr__pfet_01v8 ad=1.32 pd=8.33 as=1.32 ps=8.33 w=8 l=0.5
X64 vdd.t266 a_n8964_8799.t55 CSoutput.t172 vdd.t265 sky130_fd_pr__pfet_01v8 ad=1.32 pd=8.33 as=1.32 ps=8.33 w=8 l=0.5
X65 gnd.t316 commonsourceibias.t64 commonsourceibias.t65 gnd.t266 sky130_fd_pr__nfet_01v8 ad=1.155 pd=7.33 as=1.155 ps=7.33 w=7 l=1
X66 diffpairibias.t19 diffpairibias.t18 gnd.t209 gnd.t208 sky130_fd_pr__nfet_01v8 ad=2.73 pd=14.78 as=2.73 ps=14.78 w=7 l=1
X67 commonsourceibias.t63 commonsourceibias.t62 gnd.t313 gnd.t11 sky130_fd_pr__nfet_01v8 ad=1.155 pd=7.33 as=1.155 ps=7.33 w=7 l=1
X68 a_n2650_13878.t38 a_n2650_13878.t37 a_n2472_13878.t24 vdd.t93 sky130_fd_pr__pfet_01v8 ad=1.485 pd=9.33 as=1.485 ps=9.33 w=9 l=0.5
X69 CSoutput.t171 a_n8964_8799.t56 vdd.t264 vdd.t238 sky130_fd_pr__pfet_01v8 ad=1.32 pd=8.33 as=1.32 ps=8.33 w=8 l=0.5
X70 a_n8964_8799.t22 a_n2650_13878.t60 a_n2650_8322.t24 vdd.t84 sky130_fd_pr__pfet_01v8 ad=1.485 pd=9.33 as=1.485 ps=9.33 w=9 l=0.5
X71 vdd.t263 a_n8964_8799.t57 CSoutput.t170 vdd.t175 sky130_fd_pr__pfet_01v8 ad=1.32 pd=8.33 as=1.32 ps=8.33 w=8 l=0.5
X72 CSoutput.t169 a_n8964_8799.t58 vdd.t262 vdd.t223 sky130_fd_pr__pfet_01v8 ad=1.32 pd=8.33 as=1.32 ps=8.33 w=8 l=0.5
X73 commonsourceibias.t61 commonsourceibias.t60 gnd.t317 gnd.t223 sky130_fd_pr__nfet_01v8 ad=1.155 pd=7.33 as=1.155 ps=7.33 w=7 l=1
X74 a_n2650_13878.t16 a_n2650_13878.t15 a_n2472_13878.t23 vdd.t122 sky130_fd_pr__pfet_01v8 ad=3.51 pd=18.78 as=1.485 ps=9.33 w=9 l=0.5
X75 gnd.t118 gnd.t116 plus.t3 gnd.t117 sky130_fd_pr__nfet_01v8 ad=0.39 pd=2.78 as=0.165 ps=1.33 w=1 l=0.5
X76 vdd.t261 a_n8964_8799.t59 CSoutput.t168 vdd.t148 sky130_fd_pr__pfet_01v8 ad=1.32 pd=8.33 as=1.32 ps=8.33 w=8 l=0.5
X77 vdd.t260 a_n8964_8799.t60 CSoutput.t167 vdd.t241 sky130_fd_pr__pfet_01v8 ad=1.32 pd=8.33 as=1.32 ps=8.33 w=8 l=0.5
X78 minus.t4 gnd.t113 gnd.t115 gnd.t114 sky130_fd_pr__nfet_01v8 ad=0.165 pd=1.33 as=0.165 ps=1.33 w=1 l=0.5
X79 a_n8964_8799.t19 a_n2650_13878.t61 a_n2650_8322.t23 vdd.t83 sky130_fd_pr__pfet_01v8 ad=1.485 pd=9.33 as=3.51 ps=18.78 w=9 l=0.5
X80 gnd.t112 gnd.t109 gnd.t111 gnd.t110 sky130_fd_pr__nfet_01v8 ad=2.73 pd=14.78 as=0 ps=0 w=7 l=1
X81 diffpairibias.t17 diffpairibias.t16 gnd.t179 gnd.t178 sky130_fd_pr__nfet_01v8 ad=2.73 pd=14.78 as=2.73 ps=14.78 w=7 l=1
X82 gnd.t318 commonsourceibias.t58 commonsourceibias.t59 gnd.t17 sky130_fd_pr__nfet_01v8 ad=1.155 pd=7.33 as=1.155 ps=7.33 w=7 l=1
X83 CSoutput.t166 a_n8964_8799.t61 vdd.t259 vdd.t155 sky130_fd_pr__pfet_01v8 ad=1.32 pd=8.33 as=1.32 ps=8.33 w=8 l=0.5
X84 CSoutput.t49 commonsourceibias.t89 gnd.t257 gnd.t170 sky130_fd_pr__nfet_01v8 ad=1.155 pd=7.33 as=1.155 ps=7.33 w=7 l=1
X85 a_n2650_8322.t22 a_n2650_13878.t62 a_n8964_8799.t20 vdd.t122 sky130_fd_pr__pfet_01v8 ad=3.51 pd=18.78 as=1.485 ps=9.33 w=9 l=0.5
X86 CSoutput.t68 commonsourceibias.t90 gnd.t298 gnd.t260 sky130_fd_pr__nfet_01v8 ad=1.155 pd=7.33 as=1.155 ps=7.33 w=7 l=1
X87 CSoutput.t165 a_n8964_8799.t62 vdd.t258 vdd.t195 sky130_fd_pr__pfet_01v8 ad=1.32 pd=8.33 as=1.32 ps=8.33 w=8 l=0.5
X88 gnd.t319 commonsourceibias.t56 commonsourceibias.t57 gnd.t255 sky130_fd_pr__nfet_01v8 ad=1.155 pd=7.33 as=1.155 ps=7.33 w=7 l=1
X89 vdd.t86 CSoutput.t203 output.t12 gnd.t249 sky130_fd_pr__nfet_01v8 ad=0.825 pd=5.33 as=0.825 ps=5.33 w=5 l=1
X90 CSoutput.t69 commonsourceibias.t91 gnd.t299 gnd.t228 sky130_fd_pr__nfet_01v8 ad=1.155 pd=7.33 as=1.155 ps=7.33 w=7 l=1
X91 CSoutput.t66 commonsourceibias.t92 gnd.t296 gnd.t174 sky130_fd_pr__nfet_01v8 ad=1.155 pd=7.33 as=1.155 ps=7.33 w=7 l=1
X92 a_n8964_8799.t16 plus.t8 a_n3827_n3924.t35 gnd.t203 sky130_fd_pr__nfet_01v8 ad=1.155 pd=7.33 as=1.155 ps=7.33 w=7 l=0.5
X93 CSoutput.t67 commonsourceibias.t93 gnd.t297 gnd.t21 sky130_fd_pr__nfet_01v8 ad=1.155 pd=7.33 as=1.155 ps=7.33 w=7 l=1
X94 CSoutput.t64 commonsourceibias.t94 gnd.t294 gnd.t159 sky130_fd_pr__nfet_01v8 ad=1.155 pd=7.33 as=1.155 ps=7.33 w=7 l=1
X95 vdd.t72 vdd.t70 vdd.t71 vdd.t46 sky130_fd_pr__pfet_01v8 ad=3.12 pd=16.78 as=0 ps=0 w=8 l=0.5
X96 a_n3827_n3924.t8 diffpairibias.t22 gnd.t216 gnd.t215 sky130_fd_pr__nfet_01v8 ad=2.73 pd=14.78 as=2.73 ps=14.78 w=7 l=1
X97 vdd.t257 a_n8964_8799.t63 CSoutput.t164 vdd.t210 sky130_fd_pr__pfet_01v8 ad=1.32 pd=8.33 as=1.32 ps=8.33 w=8 l=0.5
X98 a_n3827_n3924.t14 minus.t9 a_n2650_13878.t2 gnd.t204 sky130_fd_pr__nfet_01v8 ad=1.155 pd=7.33 as=1.155 ps=7.33 w=7 l=0.5
X99 vdd.t256 a_n8964_8799.t64 CSoutput.t163 vdd.t245 sky130_fd_pr__pfet_01v8 ad=1.32 pd=8.33 as=1.32 ps=8.33 w=8 l=0.5
X100 a_n2650_13878.t46 a_n2650_13878.t45 a_n2472_13878.t22 vdd.t91 sky130_fd_pr__pfet_01v8 ad=1.485 pd=9.33 as=1.485 ps=9.33 w=9 l=0.5
X101 vdd.t255 a_n8964_8799.t65 CSoutput.t162 vdd.t185 sky130_fd_pr__pfet_01v8 ad=3.12 pd=16.78 as=1.32 ps=8.33 w=8 l=0.5
X102 vdd.t254 a_n8964_8799.t66 CSoutput.t161 vdd.t217 sky130_fd_pr__pfet_01v8 ad=1.32 pd=8.33 as=1.32 ps=8.33 w=8 l=0.5
X103 output.t11 CSoutput.t204 vdd.t87 gnd.t248 sky130_fd_pr__nfet_01v8 ad=1.95 pd=10.78 as=0.825 ps=5.33 w=5 l=1
X104 a_n8964_8799.t18 a_n2650_13878.t63 a_n2650_8322.t21 vdd.t0 sky130_fd_pr__pfet_01v8 ad=1.485 pd=9.33 as=1.485 ps=9.33 w=9 l=0.5
X105 a_n2650_13878.t18 a_n2650_13878.t17 a_n2472_13878.t21 vdd.t115 sky130_fd_pr__pfet_01v8 ad=3.51 pd=18.78 as=1.485 ps=9.33 w=9 l=0.5
X106 a_n2650_13878.t52 minus.t10 a_n3827_n3924.t32 gnd.t289 sky130_fd_pr__nfet_01v8 ad=1.155 pd=7.33 as=1.155 ps=7.33 w=7 l=0.5
X107 gnd.t231 commonsourceibias.t54 commonsourceibias.t55 gnd.t5 sky130_fd_pr__nfet_01v8 ad=1.155 pd=7.33 as=1.155 ps=7.33 w=7 l=1
X108 gnd.t232 commonsourceibias.t52 commonsourceibias.t53 gnd.t183 sky130_fd_pr__nfet_01v8 ad=1.155 pd=7.33 as=1.155 ps=7.33 w=7 l=1
X109 a_n3827_n3924.t29 plus.t9 a_n8964_8799.t8 gnd.t218 sky130_fd_pr__nfet_01v8 ad=1.155 pd=7.33 as=1.155 ps=7.33 w=7 l=0.5
X110 gnd.t233 commonsourceibias.t50 commonsourceibias.t51 gnd.t191 sky130_fd_pr__nfet_01v8 ad=1.155 pd=7.33 as=1.155 ps=7.33 w=7 l=1
X111 output.t19 outputibias.t8 gnd.t348 gnd.t347 sky130_fd_pr__nfet_01v8 ad=2.34 pd=12.78 as=2.34 ps=12.78 w=6 l=2
X112 CSoutput.t205 a_n2650_8322.t33 sky130_fd_pr__cap_mim_m3_1 l=12 w=12
X113 vdd.t253 a_n8964_8799.t67 CSoutput.t160 vdd.t153 sky130_fd_pr__pfet_01v8 ad=1.32 pd=8.33 as=1.32 ps=8.33 w=8 l=0.5
X114 CSoutput.t159 a_n8964_8799.t68 vdd.t252 vdd.t238 sky130_fd_pr__pfet_01v8 ad=1.32 pd=8.33 as=1.32 ps=8.33 w=8 l=0.5
X115 CSoutput.t158 a_n8964_8799.t69 vdd.t251 vdd.t189 sky130_fd_pr__pfet_01v8 ad=1.32 pd=8.33 as=1.32 ps=8.33 w=8 l=0.5
X116 gnd.t108 gnd.t105 gnd.t107 gnd.t106 sky130_fd_pr__nfet_01v8 ad=2.34 pd=12.78 as=0 ps=0 w=6 l=2
X117 diffpairibias.t15 diffpairibias.t14 gnd.t331 gnd.t330 sky130_fd_pr__nfet_01v8 ad=2.73 pd=14.78 as=2.73 ps=14.78 w=7 l=1
X118 a_n3827_n3924.t30 minus.t11 a_n2650_13878.t51 gnd.t202 sky130_fd_pr__nfet_01v8 ad=2.73 pd=14.78 as=1.155 ps=7.33 w=7 l=0.5
X119 output.t18 outputibias.t9 gnd.t346 gnd.t345 sky130_fd_pr__nfet_01v8 ad=2.34 pd=12.78 as=2.34 ps=12.78 w=6 l=2
X120 vdd.t69 vdd.t67 vdd.t68 vdd.t54 sky130_fd_pr__pfet_01v8 ad=3.51 pd=18.78 as=0 ps=0 w=9 l=0.5
X121 CSoutput.t157 a_n8964_8799.t70 vdd.t250 vdd.t155 sky130_fd_pr__pfet_01v8 ad=1.32 pd=8.33 as=1.32 ps=8.33 w=8 l=0.5
X122 gnd.t295 commonsourceibias.t95 CSoutput.t65 gnd.t15 sky130_fd_pr__nfet_01v8 ad=1.155 pd=7.33 as=1.155 ps=7.33 w=7 l=1
X123 vdd.t66 vdd.t63 vdd.t65 vdd.t64 sky130_fd_pr__pfet_01v8 ad=3.51 pd=18.78 as=0 ps=0 w=9 l=0.5
X124 gnd.t326 commonsourceibias.t96 CSoutput.t195 gnd.t150 sky130_fd_pr__nfet_01v8 ad=1.155 pd=7.33 as=1.155 ps=7.33 w=7 l=1
X125 gnd.t327 commonsourceibias.t97 CSoutput.t196 gnd.t17 sky130_fd_pr__nfet_01v8 ad=1.155 pd=7.33 as=1.155 ps=7.33 w=7 l=1
X126 gnd.t333 commonsourceibias.t98 CSoutput.t198 gnd.t269 sky130_fd_pr__nfet_01v8 ad=1.155 pd=7.33 as=1.155 ps=7.33 w=7 l=1
X127 CSoutput.t156 a_n8964_8799.t71 vdd.t249 vdd.t126 sky130_fd_pr__pfet_01v8 ad=1.32 pd=8.33 as=1.32 ps=8.33 w=8 l=0.5
X128 gnd.t334 commonsourceibias.t99 CSoutput.t199 gnd.t271 sky130_fd_pr__nfet_01v8 ad=1.155 pd=7.33 as=1.155 ps=7.33 w=7 l=1
X129 output.t10 CSoutput.t206 vdd.t109 gnd.t247 sky130_fd_pr__nfet_01v8 ad=0.825 pd=5.33 as=0.825 ps=5.33 w=5 l=1
X130 vdd.t248 a_n8964_8799.t72 CSoutput.t155 vdd.t245 sky130_fd_pr__pfet_01v8 ad=1.32 pd=8.33 as=1.32 ps=8.33 w=8 l=0.5
X131 vdd.t110 CSoutput.t207 output.t9 gnd.t246 sky130_fd_pr__nfet_01v8 ad=0.825 pd=5.33 as=1.95 ps=10.78 w=5 l=1
X132 vdd.t121 a_n2650_13878.t64 a_n2650_8322.t7 vdd.t120 sky130_fd_pr__pfet_01v8 ad=1.485 pd=9.33 as=1.485 ps=9.33 w=9 l=0.5
X133 a_n2650_13878.t14 a_n2650_13878.t13 a_n2472_13878.t20 vdd.t125 sky130_fd_pr__pfet_01v8 ad=1.485 pd=9.33 as=1.485 ps=9.33 w=9 l=0.5
X134 vdd.t62 vdd.t60 vdd.t61 vdd.t30 sky130_fd_pr__pfet_01v8 ad=3.12 pd=16.78 as=0 ps=0 w=8 l=0.5
X135 gnd.t276 commonsourceibias.t100 CSoutput.t60 gnd.t152 sky130_fd_pr__nfet_01v8 ad=2.73 pd=14.78 as=1.155 ps=7.33 w=7 l=1
X136 gnd.t104 gnd.t102 gnd.t103 gnd.t60 sky130_fd_pr__nfet_01v8 ad=2.73 pd=14.78 as=0 ps=0 w=7 l=1
X137 a_n2650_8322.t6 a_n2650_13878.t65 vdd.t289 vdd.t288 sky130_fd_pr__pfet_01v8 ad=1.485 pd=9.33 as=1.485 ps=9.33 w=9 l=0.5
X138 a_n3827_n3924.t7 diffpairibias.t23 gnd.t308 gnd.t307 sky130_fd_pr__nfet_01v8 ad=2.73 pd=14.78 as=2.73 ps=14.78 w=7 l=1
X139 CSoutput.t154 a_n8964_8799.t73 vdd.t247 vdd.t195 sky130_fd_pr__pfet_01v8 ad=1.32 pd=8.33 as=1.32 ps=8.33 w=8 l=0.5
X140 a_n2650_13878.t6 minus.t12 a_n3827_n3924.t19 gnd.t214 sky130_fd_pr__nfet_01v8 ad=1.155 pd=7.33 as=1.155 ps=7.33 w=7 l=0.5
X141 CSoutput.t61 commonsourceibias.t101 gnd.t277 gnd.t161 sky130_fd_pr__nfet_01v8 ad=1.155 pd=7.33 as=2.73 ps=14.78 w=7 l=1
X142 gnd.t234 commonsourceibias.t48 commonsourceibias.t49 gnd.t212 sky130_fd_pr__nfet_01v8 ad=1.155 pd=7.33 as=1.155 ps=7.33 w=7 l=1
X143 a_n3827_n3924.t38 plus.t10 a_n8964_8799.t27 gnd.t211 sky130_fd_pr__nfet_01v8 ad=1.155 pd=7.33 as=1.155 ps=7.33 w=7 l=0.5
X144 vdd.t291 a_n2650_13878.t66 a_n2472_13878.t6 vdd.t290 sky130_fd_pr__pfet_01v8 ad=1.485 pd=9.33 as=1.485 ps=9.33 w=9 l=0.5
X145 vdd.t59 vdd.t57 vdd.t58 vdd.t46 sky130_fd_pr__pfet_01v8 ad=3.12 pd=16.78 as=0 ps=0 w=8 l=0.5
X146 gnd.t259 commonsourceibias.t102 CSoutput.t51 gnd.t164 sky130_fd_pr__nfet_01v8 ad=1.155 pd=7.33 as=1.155 ps=7.33 w=7 l=1
X147 vdd.t56 vdd.t53 vdd.t55 vdd.t54 sky130_fd_pr__pfet_01v8 ad=3.51 pd=18.78 as=0 ps=0 w=9 l=0.5
X148 vdd.t246 a_n8964_8799.t74 CSoutput.t153 vdd.t245 sky130_fd_pr__pfet_01v8 ad=1.32 pd=8.33 as=1.32 ps=8.33 w=8 l=0.5
X149 vdd.t244 a_n8964_8799.t75 CSoutput.t152 vdd.t217 sky130_fd_pr__pfet_01v8 ad=1.32 pd=8.33 as=1.32 ps=8.33 w=8 l=0.5
X150 gnd.t282 commonsourceibias.t46 commonsourceibias.t47 gnd.t271 sky130_fd_pr__nfet_01v8 ad=1.155 pd=7.33 as=1.155 ps=7.33 w=7 l=1
X151 a_n8964_8799.t3 plus.t11 a_n3827_n3924.t20 gnd.t217 sky130_fd_pr__nfet_01v8 ad=1.155 pd=7.33 as=2.73 ps=14.78 w=7 l=0.5
X152 vdd.t52 vdd.t49 vdd.t51 vdd.t50 sky130_fd_pr__pfet_01v8 ad=3.51 pd=18.78 as=0 ps=0 w=9 l=0.5
X153 a_n2650_8322.t5 a_n2650_13878.t67 vdd.t293 vdd.t292 sky130_fd_pr__pfet_01v8 ad=3.51 pd=18.78 as=1.485 ps=9.33 w=9 l=0.5
X154 a_n8964_8799.t28 a_n2650_13878.t68 a_n2650_8322.t20 vdd.t88 sky130_fd_pr__pfet_01v8 ad=1.485 pd=9.33 as=1.485 ps=9.33 w=9 l=0.5
X155 CSoutput.t151 a_n8964_8799.t76 vdd.t243 vdd.t162 sky130_fd_pr__pfet_01v8 ad=1.32 pd=8.33 as=1.32 ps=8.33 w=8 l=0.5
X156 diffpairibias.t13 diffpairibias.t12 gnd.t312 gnd.t311 sky130_fd_pr__nfet_01v8 ad=2.73 pd=14.78 as=2.73 ps=14.78 w=7 l=1
X157 CSoutput.t208 a_n2650_8322.t32 sky130_fd_pr__cap_mim_m3_1 l=12 w=12
X158 vdd.t242 a_n8964_8799.t77 CSoutput.t150 vdd.t241 sky130_fd_pr__pfet_01v8 ad=1.32 pd=8.33 as=1.32 ps=8.33 w=8 l=0.5
X159 CSoutput.t52 commonsourceibias.t103 gnd.t261 gnd.t260 sky130_fd_pr__nfet_01v8 ad=1.155 pd=7.33 as=1.155 ps=7.33 w=7 l=1
X160 a_n2650_13878.t28 a_n2650_13878.t27 a_n2472_13878.t19 vdd.t119 sky130_fd_pr__pfet_01v8 ad=1.485 pd=9.33 as=1.485 ps=9.33 w=9 l=0.5
X161 vdd.t240 a_n8964_8799.t78 CSoutput.t149 vdd.t153 sky130_fd_pr__pfet_01v8 ad=1.32 pd=8.33 as=1.32 ps=8.33 w=8 l=0.5
X162 a_n8964_8799.t13 a_n2650_13878.t69 a_n2650_8322.t19 vdd.t112 sky130_fd_pr__pfet_01v8 ad=1.485 pd=9.33 as=1.485 ps=9.33 w=9 l=0.5
X163 CSoutput.t148 a_n8964_8799.t79 vdd.t239 vdd.t238 sky130_fd_pr__pfet_01v8 ad=1.32 pd=8.33 as=1.32 ps=8.33 w=8 l=0.5
X164 CSoutput.t147 a_n8964_8799.t80 vdd.t237 vdd.t189 sky130_fd_pr__pfet_01v8 ad=1.32 pd=8.33 as=1.32 ps=8.33 w=8 l=0.5
X165 CSoutput.t146 a_n8964_8799.t81 vdd.t236 vdd.t204 sky130_fd_pr__pfet_01v8 ad=1.32 pd=8.33 as=1.32 ps=8.33 w=8 l=0.5
X166 CSoutput.t45 commonsourceibias.t104 gnd.t229 gnd.t228 sky130_fd_pr__nfet_01v8 ad=1.155 pd=7.33 as=1.155 ps=7.33 w=7 l=1
X167 a_n2472_13878.t18 a_n2650_13878.t9 a_n2650_13878.t10 vdd.t0 sky130_fd_pr__pfet_01v8 ad=1.485 pd=9.33 as=1.485 ps=9.33 w=9 l=0.5
X168 commonsourceibias.t45 commonsourceibias.t44 gnd.t283 gnd.t170 sky130_fd_pr__nfet_01v8 ad=1.155 pd=7.33 as=1.155 ps=7.33 w=7 l=1
X169 CSoutput.t46 commonsourceibias.t105 gnd.t230 gnd.t174 sky130_fd_pr__nfet_01v8 ad=1.155 pd=7.33 as=1.155 ps=7.33 w=7 l=1
X170 gnd.t154 commonsourceibias.t106 CSoutput.t16 gnd.t7 sky130_fd_pr__nfet_01v8 ad=2.73 pd=14.78 as=1.155 ps=7.33 w=7 l=1
X171 CSoutput.t17 commonsourceibias.t107 gnd.t155 gnd.t21 sky130_fd_pr__nfet_01v8 ad=1.155 pd=7.33 as=1.155 ps=7.33 w=7 l=1
X172 vdd.t111 CSoutput.t209 output.t8 gnd.t245 sky130_fd_pr__nfet_01v8 ad=0.825 pd=5.33 as=0.825 ps=5.33 w=5 l=1
X173 plus.t2 gnd.t99 gnd.t101 gnd.t100 sky130_fd_pr__nfet_01v8 ad=0.165 pd=1.33 as=0.165 ps=1.33 w=1 l=0.5
X174 vdd.t48 vdd.t45 vdd.t47 vdd.t46 sky130_fd_pr__pfet_01v8 ad=3.12 pd=16.78 as=0 ps=0 w=8 l=0.5
X175 vdd.t44 vdd.t42 vdd.t43 vdd.t16 sky130_fd_pr__pfet_01v8 ad=3.12 pd=16.78 as=0 ps=0 w=8 l=0.5
X176 CSoutput.t43 commonsourceibias.t108 gnd.t226 gnd.t13 sky130_fd_pr__nfet_01v8 ad=1.155 pd=7.33 as=1.155 ps=7.33 w=7 l=1
X177 gnd.t98 gnd.t96 minus.t3 gnd.t97 sky130_fd_pr__nfet_01v8 ad=0.165 pd=1.33 as=0.165 ps=1.33 w=1 l=0.5
X178 gnd.t227 commonsourceibias.t109 CSoutput.t44 gnd.t27 sky130_fd_pr__nfet_01v8 ad=1.155 pd=7.33 as=1.155 ps=7.33 w=7 l=1
X179 CSoutput.t145 a_n8964_8799.t82 vdd.t235 vdd.t223 sky130_fd_pr__pfet_01v8 ad=1.32 pd=8.33 as=1.32 ps=8.33 w=8 l=0.5
X180 gnd.t235 commonsourceibias.t42 commonsourceibias.t43 gnd.t186 sky130_fd_pr__nfet_01v8 ad=1.155 pd=7.33 as=1.155 ps=7.33 w=7 l=1
X181 a_n2650_13878.t50 minus.t13 a_n3827_n3924.t28 gnd.t253 sky130_fd_pr__nfet_01v8 ad=1.155 pd=7.33 as=1.155 ps=7.33 w=7 l=0.5
X182 vdd.t114 a_n2650_13878.t70 a_n2650_8322.t4 vdd.t113 sky130_fd_pr__pfet_01v8 ad=1.485 pd=9.33 as=3.51 ps=18.78 w=9 l=0.5
X183 a_n2472_13878.t17 a_n2650_13878.t25 a_n2650_13878.t26 vdd.t92 sky130_fd_pr__pfet_01v8 ad=1.485 pd=9.33 as=1.485 ps=9.33 w=9 l=0.5
X184 gnd.t197 commonsourceibias.t110 CSoutput.t36 gnd.t5 sky130_fd_pr__nfet_01v8 ad=1.155 pd=7.33 as=1.155 ps=7.33 w=7 l=1
X185 vdd.t234 a_n8964_8799.t83 CSoutput.t144 vdd.t221 sky130_fd_pr__pfet_01v8 ad=3.12 pd=16.78 as=1.32 ps=8.33 w=8 l=0.5
X186 vdd.t233 a_n8964_8799.t84 CSoutput.t143 vdd.t219 sky130_fd_pr__pfet_01v8 ad=1.32 pd=8.33 as=1.32 ps=8.33 w=8 l=0.5
X187 vdd.t41 vdd.t39 vdd.t40 vdd.t30 sky130_fd_pr__pfet_01v8 ad=3.12 pd=16.78 as=0 ps=0 w=8 l=0.5
X188 a_n2650_13878.t48 a_n2650_13878.t47 a_n2472_13878.t16 vdd.t108 sky130_fd_pr__pfet_01v8 ad=1.485 pd=9.33 as=1.485 ps=9.33 w=9 l=0.5
X189 commonsourceibias.t41 commonsourceibias.t40 gnd.t206 gnd.t19 sky130_fd_pr__nfet_01v8 ad=1.155 pd=7.33 as=1.155 ps=7.33 w=7 l=1
X190 gnd.t278 commonsourceibias.t38 commonsourceibias.t39 gnd.t164 sky130_fd_pr__nfet_01v8 ad=1.155 pd=7.33 as=1.155 ps=7.33 w=7 l=1
X191 vdd.t232 a_n8964_8799.t85 CSoutput.t142 vdd.t164 sky130_fd_pr__pfet_01v8 ad=1.32 pd=8.33 as=1.32 ps=8.33 w=8 l=0.5
X192 gnd.t28 commonsourceibias.t36 commonsourceibias.t37 gnd.t27 sky130_fd_pr__nfet_01v8 ad=1.155 pd=7.33 as=1.155 ps=7.33 w=7 l=1
X193 a_n3827_n3924.t6 diffpairibias.t24 gnd.t1 gnd.t0 sky130_fd_pr__nfet_01v8 ad=2.73 pd=14.78 as=2.73 ps=14.78 w=7 l=1
X194 commonsourceibias.t35 commonsourceibias.t34 gnd.t328 gnd.t159 sky130_fd_pr__nfet_01v8 ad=1.155 pd=7.33 as=1.155 ps=7.33 w=7 l=1
X195 a_n3827_n3924.t5 diffpairibias.t25 gnd.t310 gnd.t309 sky130_fd_pr__nfet_01v8 ad=2.73 pd=14.78 as=2.73 ps=14.78 w=7 l=1
X196 gnd.t199 commonsourceibias.t111 CSoutput.t37 gnd.t198 sky130_fd_pr__nfet_01v8 ad=1.155 pd=7.33 as=1.155 ps=7.33 w=7 l=1
X197 a_n2650_13878.t0 minus.t14 a_n3827_n3924.t0 gnd.t4 sky130_fd_pr__nfet_01v8 ad=1.155 pd=7.33 as=1.155 ps=7.33 w=7 l=0.5
X198 vdd.t231 a_n8964_8799.t86 CSoutput.t141 vdd.t221 sky130_fd_pr__pfet_01v8 ad=3.12 pd=16.78 as=1.32 ps=8.33 w=8 l=0.5
X199 vdd.t230 a_n8964_8799.t87 CSoutput.t140 vdd.t210 sky130_fd_pr__pfet_01v8 ad=1.32 pd=8.33 as=1.32 ps=8.33 w=8 l=0.5
X200 gnd.t16 commonsourceibias.t112 CSoutput.t3 gnd.t15 sky130_fd_pr__nfet_01v8 ad=1.155 pd=7.33 as=1.155 ps=7.33 w=7 l=1
X201 CSoutput.t139 a_n8964_8799.t88 vdd.t229 vdd.t146 sky130_fd_pr__pfet_01v8 ad=1.32 pd=8.33 as=3.12 ps=16.78 w=8 l=0.5
X202 gnd.t18 commonsourceibias.t113 CSoutput.t4 gnd.t17 sky130_fd_pr__nfet_01v8 ad=1.155 pd=7.33 as=1.155 ps=7.33 w=7 l=1
X203 gnd.t151 commonsourceibias.t114 CSoutput.t14 gnd.t150 sky130_fd_pr__nfet_01v8 ad=1.155 pd=7.33 as=1.155 ps=7.33 w=7 l=1
X204 gnd.t153 commonsourceibias.t115 CSoutput.t15 gnd.t152 sky130_fd_pr__nfet_01v8 ad=2.73 pd=14.78 as=1.155 ps=7.33 w=7 l=1
X205 a_n2472_13878.t15 a_n2650_13878.t19 a_n2650_13878.t20 vdd.t116 sky130_fd_pr__pfet_01v8 ad=1.485 pd=9.33 as=1.485 ps=9.33 w=9 l=0.5
X206 vdd.t38 vdd.t36 vdd.t37 vdd.t8 sky130_fd_pr__pfet_01v8 ad=3.51 pd=18.78 as=0 ps=0 w=9 l=0.5
X207 CSoutput.t210 a_n2650_8322.t31 sky130_fd_pr__cap_mim_m3_1 l=12 w=12
X208 CSoutput.t34 commonsourceibias.t116 gnd.t195 gnd.t29 sky130_fd_pr__nfet_01v8 ad=1.155 pd=7.33 as=1.155 ps=7.33 w=7 l=1
X209 a_n2650_8322.t18 a_n2650_13878.t71 a_n8964_8799.t12 vdd.t93 sky130_fd_pr__pfet_01v8 ad=1.485 pd=9.33 as=1.485 ps=9.33 w=9 l=0.5
X210 CSoutput.t138 a_n8964_8799.t89 vdd.t228 vdd.t204 sky130_fd_pr__pfet_01v8 ad=1.32 pd=8.33 as=1.32 ps=8.33 w=8 l=0.5
X211 CSoutput.t137 a_n8964_8799.t90 vdd.t227 vdd.t133 sky130_fd_pr__pfet_01v8 ad=1.32 pd=8.33 as=1.32 ps=8.33 w=8 l=0.5
X212 commonsourceibias.t33 commonsourceibias.t32 gnd.t236 gnd.t142 sky130_fd_pr__nfet_01v8 ad=1.155 pd=7.33 as=1.155 ps=7.33 w=7 l=1
X213 CSoutput.t35 commonsourceibias.t117 gnd.t196 gnd.t161 sky130_fd_pr__nfet_01v8 ad=1.155 pd=7.33 as=2.73 ps=14.78 w=7 l=1
X214 CSoutput.t136 a_n8964_8799.t91 vdd.t226 vdd.t225 sky130_fd_pr__pfet_01v8 ad=1.32 pd=8.33 as=3.12 ps=16.78 w=8 l=0.5
X215 a_n2650_13878.t55 minus.t15 a_n3827_n3924.t40 gnd.t220 sky130_fd_pr__nfet_01v8 ad=1.155 pd=7.33 as=1.155 ps=7.33 w=7 l=0.5
X216 CSoutput.t211 a_n2650_8322.t30 sky130_fd_pr__cap_mim_m3_1 l=12 w=12
X217 gnd.t24 commonsourceibias.t118 CSoutput.t6 gnd.t23 sky130_fd_pr__nfet_01v8 ad=1.155 pd=7.33 as=1.155 ps=7.33 w=7 l=1
X218 CSoutput.t7 commonsourceibias.t119 gnd.t26 gnd.t25 sky130_fd_pr__nfet_01v8 ad=1.155 pd=7.33 as=1.155 ps=7.33 w=7 l=1
X219 gnd.t95 gnd.t93 gnd.t94 gnd.t48 sky130_fd_pr__nfet_01v8 ad=2.73 pd=14.78 as=0 ps=0 w=7 l=1
X220 diffpairibias.t11 diffpairibias.t10 gnd.t291 gnd.t290 sky130_fd_pr__nfet_01v8 ad=2.73 pd=14.78 as=2.73 ps=14.78 w=7 l=1
X221 a_n2472_13878.t5 a_n2650_13878.t72 vdd.t95 vdd.t94 sky130_fd_pr__pfet_01v8 ad=1.485 pd=9.33 as=1.485 ps=9.33 w=9 l=0.5
X222 gnd.t165 commonsourceibias.t120 CSoutput.t21 gnd.t164 sky130_fd_pr__nfet_01v8 ad=1.155 pd=7.33 as=1.155 ps=7.33 w=7 l=1
X223 vdd.t90 a_n2650_13878.t73 a_n2472_13878.t4 vdd.t89 sky130_fd_pr__pfet_01v8 ad=1.485 pd=9.33 as=1.485 ps=9.33 w=9 l=0.5
X224 output.t17 outputibias.t10 gnd.t344 gnd.t343 sky130_fd_pr__nfet_01v8 ad=2.34 pd=12.78 as=2.34 ps=12.78 w=6 l=2
X225 gnd.t301 commonsourceibias.t30 commonsourceibias.t31 gnd.t198 sky130_fd_pr__nfet_01v8 ad=1.155 pd=7.33 as=1.155 ps=7.33 w=7 l=1
X226 CSoutput.t135 a_n8964_8799.t92 vdd.t224 vdd.t223 sky130_fd_pr__pfet_01v8 ad=1.32 pd=8.33 as=1.32 ps=8.33 w=8 l=0.5
X227 gnd.t8 commonsourceibias.t28 commonsourceibias.t29 gnd.t7 sky130_fd_pr__nfet_01v8 ad=2.73 pd=14.78 as=1.155 ps=7.33 w=7 l=1
X228 a_n3827_n3924.t24 plus.t12 a_n8964_8799.t5 gnd.t205 sky130_fd_pr__nfet_01v8 ad=1.155 pd=7.33 as=1.155 ps=7.33 w=7 l=0.5
X229 vdd.t222 a_n8964_8799.t93 CSoutput.t134 vdd.t221 sky130_fd_pr__pfet_01v8 ad=3.12 pd=16.78 as=1.32 ps=8.33 w=8 l=0.5
X230 vdd.t220 a_n8964_8799.t94 CSoutput.t133 vdd.t219 sky130_fd_pr__pfet_01v8 ad=1.32 pd=8.33 as=1.32 ps=8.33 w=8 l=0.5
X231 commonsourceibias.t27 commonsourceibias.t26 gnd.t31 gnd.t13 sky130_fd_pr__nfet_01v8 ad=1.155 pd=7.33 as=1.155 ps=7.33 w=7 l=1
X232 vdd.t218 a_n8964_8799.t95 CSoutput.t132 vdd.t217 sky130_fd_pr__pfet_01v8 ad=1.32 pd=8.33 as=1.32 ps=8.33 w=8 l=0.5
X233 CSoutput.t22 commonsourceibias.t121 gnd.t167 gnd.t166 sky130_fd_pr__nfet_01v8 ad=1.155 pd=7.33 as=1.155 ps=7.33 w=7 l=1
X234 CSoutput.t131 a_n8964_8799.t96 vdd.t216 vdd.t183 sky130_fd_pr__pfet_01v8 ad=1.32 pd=8.33 as=1.32 ps=8.33 w=8 l=0.5
X235 gnd.t92 gnd.t90 gnd.t91 gnd.t42 sky130_fd_pr__nfet_01v8 ad=2.73 pd=14.78 as=0 ps=0 w=7 l=0.5
X236 plus.t1 gnd.t87 gnd.t89 gnd.t88 sky130_fd_pr__nfet_01v8 ad=0.165 pd=1.33 as=0.165 ps=1.33 w=1 l=0.5
X237 a_n2472_13878.t14 a_n2650_13878.t31 a_n2650_13878.t32 vdd.t84 sky130_fd_pr__pfet_01v8 ad=1.485 pd=9.33 as=1.485 ps=9.33 w=9 l=0.5
X238 diffpairibias.t9 diffpairibias.t8 gnd.t274 gnd.t273 sky130_fd_pr__nfet_01v8 ad=2.73 pd=14.78 as=2.73 ps=14.78 w=7 l=1
X239 a_n3827_n3924.t25 plus.t13 a_n8964_8799.t6 gnd.t219 sky130_fd_pr__nfet_01v8 ad=1.155 pd=7.33 as=1.155 ps=7.33 w=7 l=0.5
X240 gnd.t86 gnd.t84 gnd.t85 gnd.t38 sky130_fd_pr__nfet_01v8 ad=2.73 pd=14.78 as=0 ps=0 w=7 l=0.5
X241 gnd.t83 gnd.t81 minus.t2 gnd.t82 sky130_fd_pr__nfet_01v8 ad=0.39 pd=2.78 as=0.165 ps=1.33 w=1 l=0.5
X242 vdd.t215 a_n8964_8799.t97 CSoutput.t130 vdd.t164 sky130_fd_pr__pfet_01v8 ad=1.32 pd=8.33 as=1.32 ps=8.33 w=8 l=0.5
X243 gnd.t284 commonsourceibias.t24 commonsourceibias.t25 gnd.t269 sky130_fd_pr__nfet_01v8 ad=1.155 pd=7.33 as=1.155 ps=7.33 w=7 l=1
X244 CSoutput.t12 commonsourceibias.t122 gnd.t148 gnd.t147 sky130_fd_pr__nfet_01v8 ad=1.155 pd=7.33 as=2.73 ps=14.78 w=7 l=1
X245 a_n2650_8322.t17 a_n2650_13878.t74 a_n8964_8799.t9 vdd.t79 sky130_fd_pr__pfet_01v8 ad=1.485 pd=9.33 as=1.485 ps=9.33 w=9 l=0.5
X246 CSoutput.t129 a_n8964_8799.t98 vdd.t214 vdd.t167 sky130_fd_pr__pfet_01v8 ad=1.32 pd=8.33 as=1.32 ps=8.33 w=8 l=0.5