* NGSPICE file created from opamp75.ext - technology: sky130A

.subckt opamp75 gnd CSoutput output vdd plus minus commonsourceibias outputibias diffpairibias
X0 gnd.t314 commonsourceibias.t10 commonsourceibias.t11 gnd.t252 sky130_fd_pr__nfet_01v8 ad=1.155 pd=7.33 as=1.155 ps=7.33 w=7 l=1
X1 CSoutput.t119 a_n8300_8799.t32 vdd.t293 vdd.t237 sky130_fd_pr__pfet_01v8 ad=1.32 pd=8.33 as=1.32 ps=8.33 w=8 l=0.5
X2 a_n2140_13878.t23 a_n2318_13878.t48 vdd.t105 vdd.t104 sky130_fd_pr__pfet_01v8 ad=1.485 pd=9.33 as=1.485 ps=9.33 w=9 l=0.5
X3 a_n2140_13878.t15 a_n2318_13878.t9 a_n2318_13878.t10 vdd.t99 sky130_fd_pr__pfet_01v8 ad=1.485 pd=9.33 as=1.485 ps=9.33 w=9 l=0.5
X4 vdd.t292 a_n8300_8799.t33 CSoutput.t118 vdd.t227 sky130_fd_pr__pfet_01v8 ad=1.32 pd=8.33 as=1.32 ps=8.33 w=8 l=0.5
X5 commonsourceibias.t29 commonsourceibias.t28 gnd.t313 gnd.t213 sky130_fd_pr__nfet_01v8 ad=1.155 pd=7.33 as=1.155 ps=7.33 w=7 l=1
X6 CSoutput.t117 a_n8300_8799.t34 vdd.t291 vdd.t155 sky130_fd_pr__pfet_01v8 ad=1.32 pd=8.33 as=3.12 ps=16.78 w=8 l=0.5
X7 a_n3827_n3924.t36 diffpairibias.t20 gnd.t23 gnd.t22 sky130_fd_pr__nfet_01v8 ad=2.73 pd=14.78 as=2.73 ps=14.78 w=7 l=1
X8 CSoutput.t116 a_n8300_8799.t35 vdd.t290 vdd.t147 sky130_fd_pr__pfet_01v8 ad=1.32 pd=8.33 as=1.32 ps=8.33 w=8 l=0.5
X9 gnd.t312 commonsourceibias.t26 commonsourceibias.t27 gnd.t195 sky130_fd_pr__nfet_01v8 ad=1.155 pd=7.33 as=1.155 ps=7.33 w=7 l=1
X10 a_n2318_8322.t23 a_n2318_13878.t49 a_n8300_8799.t12 vdd.t106 sky130_fd_pr__pfet_01v8 ad=1.485 pd=9.33 as=1.485 ps=9.33 w=9 l=0.5
X11 commonsourceibias.t25 commonsourceibias.t24 gnd.t311 gnd.t223 sky130_fd_pr__nfet_01v8 ad=1.155 pd=7.33 as=1.155 ps=7.33 w=7 l=1
X12 gnd.t310 commonsourceibias.t48 CSoutput.t191 gnd.t201 sky130_fd_pr__nfet_01v8 ad=1.155 pd=7.33 as=1.155 ps=7.33 w=7 l=1
X13 CSoutput.t115 a_n8300_8799.t36 vdd.t285 vdd.t188 sky130_fd_pr__pfet_01v8 ad=1.32 pd=8.33 as=1.32 ps=8.33 w=8 l=0.5
X14 a_n8300_8799.t19 plus.t5 a_n3827_n3924.t24 gnd.t10 sky130_fd_pr__nfet_01v8 ad=1.155 pd=7.33 as=1.155 ps=7.33 w=7 l=0.5
X15 vdd.t289 a_n8300_8799.t37 CSoutput.t114 vdd.t225 sky130_fd_pr__pfet_01v8 ad=1.32 pd=8.33 as=1.32 ps=8.33 w=8 l=0.5
X16 gnd.t163 gnd.t161 gnd.t162 gnd.t82 sky130_fd_pr__nfet_01v8 ad=2.73 pd=14.78 as=0 ps=0 w=7 l=1
X17 output.t19 outputibias.t8 gnd.t175 gnd.t174 sky130_fd_pr__nfet_01v8 ad=2.34 pd=12.78 as=2.34 ps=12.78 w=6 l=2
X18 a_n8300_8799.t21 a_n2318_13878.t50 a_n2318_8322.t22 vdd.t113 sky130_fd_pr__pfet_01v8 ad=1.485 pd=9.33 as=3.51 ps=18.78 w=9 l=0.5
X19 vdd.t288 a_n8300_8799.t38 CSoutput.t113 vdd.t250 sky130_fd_pr__pfet_01v8 ad=1.32 pd=8.33 as=1.32 ps=8.33 w=8 l=0.5
X20 vdd.t286 a_n8300_8799.t39 CSoutput.t112 vdd.t138 sky130_fd_pr__pfet_01v8 ad=1.32 pd=8.33 as=1.32 ps=8.33 w=8 l=0.5
X21 CSoutput.t111 a_n8300_8799.t40 vdd.t287 vdd.t196 sky130_fd_pr__pfet_01v8 ad=1.32 pd=8.33 as=1.32 ps=8.33 w=8 l=0.5
X22 vdd.t284 a_n8300_8799.t41 CSoutput.t110 vdd.t247 sky130_fd_pr__pfet_01v8 ad=1.32 pd=8.33 as=1.32 ps=8.33 w=8 l=0.5
X23 commonsourceibias.t23 commonsourceibias.t22 gnd.t309 gnd.t250 sky130_fd_pr__nfet_01v8 ad=1.155 pd=7.33 as=1.155 ps=7.33 w=7 l=1
X24 a_n8300_8799.t22 a_n2318_13878.t51 a_n2318_8322.t21 vdd.t124 sky130_fd_pr__pfet_01v8 ad=1.485 pd=9.33 as=3.51 ps=18.78 w=9 l=0.5
X25 gnd.t160 gnd.t157 gnd.t159 gnd.t158 sky130_fd_pr__nfet_01v8 ad=2.34 pd=12.78 as=0 ps=0 w=6 l=2
X26 gnd.t156 gnd.t153 gnd.t155 gnd.t154 sky130_fd_pr__nfet_01v8 ad=1.95 pd=10.78 as=0 ps=0 w=5 l=1
X27 a_n8300_8799.t23 plus.t6 a_n3827_n3924.t25 gnd.t4 sky130_fd_pr__nfet_01v8 ad=1.155 pd=7.33 as=1.155 ps=7.33 w=7 l=0.5
X28 gnd.t308 commonsourceibias.t49 CSoutput.t190 gnd.t207 sky130_fd_pr__nfet_01v8 ad=1.155 pd=7.33 as=1.155 ps=7.33 w=7 l=1
X29 CSoutput.t189 commonsourceibias.t50 gnd.t307 gnd.t217 sky130_fd_pr__nfet_01v8 ad=1.155 pd=7.33 as=1.155 ps=7.33 w=7 l=1
X30 vdd.t90 vdd.t88 vdd.t89 vdd.t16 sky130_fd_pr__pfet_01v8 ad=3.51 pd=18.78 as=0 ps=0 w=9 l=0.5
X31 gnd.t306 commonsourceibias.t20 commonsourceibias.t21 gnd.t201 sky130_fd_pr__nfet_01v8 ad=1.155 pd=7.33 as=1.155 ps=7.33 w=7 l=1
X32 CSoutput.t109 a_n8300_8799.t42 vdd.t283 vdd.t237 sky130_fd_pr__pfet_01v8 ad=1.32 pd=8.33 as=1.32 ps=8.33 w=8 l=0.5
X33 a_n3827_n3924.t35 diffpairibias.t21 gnd.t167 gnd.t166 sky130_fd_pr__nfet_01v8 ad=2.73 pd=14.78 as=2.73 ps=14.78 w=7 l=1
X34 a_n3827_n3924.t18 minus.t5 a_n2318_13878.t44 gnd.t36 sky130_fd_pr__nfet_01v8 ad=1.155 pd=7.33 as=1.155 ps=7.33 w=7 l=0.5
X35 CSoutput.t108 a_n8300_8799.t43 vdd.t282 vdd.t182 sky130_fd_pr__pfet_01v8 ad=1.32 pd=8.33 as=3.12 ps=16.78 w=8 l=0.5
X36 commonsourceibias.t19 commonsourceibias.t18 gnd.t305 gnd.t197 sky130_fd_pr__nfet_01v8 ad=1.155 pd=7.33 as=2.73 ps=14.78 w=7 l=1
X37 CSoutput.t107 a_n8300_8799.t44 vdd.t281 vdd.t204 sky130_fd_pr__pfet_01v8 ad=1.32 pd=8.33 as=1.32 ps=8.33 w=8 l=0.5
X38 gnd.t152 gnd.t150 plus.t4 gnd.t151 sky130_fd_pr__nfet_01v8 ad=0.165 pd=1.33 as=0.39 ps=2.78 w=1 l=0.5
X39 a_n3827_n3924.t11 plus.t7 a_n8300_8799.t9 gnd.t21 sky130_fd_pr__nfet_01v8 ad=2.73 pd=14.78 as=1.155 ps=7.33 w=7 l=0.5
X40 vdd.t280 a_n8300_8799.t45 CSoutput.t106 vdd.t138 sky130_fd_pr__pfet_01v8 ad=1.32 pd=8.33 as=1.32 ps=8.33 w=8 l=0.5
X41 a_n2318_13878.t43 minus.t6 a_n3827_n3924.t17 gnd.t37 sky130_fd_pr__nfet_01v8 ad=1.155 pd=7.33 as=2.73 ps=14.78 w=7 l=0.5
X42 a_n3827_n3924.t16 minus.t7 a_n2318_13878.t42 gnd.t30 sky130_fd_pr__nfet_01v8 ad=1.155 pd=7.33 as=1.155 ps=7.33 w=7 l=0.5
X43 CSoutput.t105 a_n8300_8799.t46 vdd.t278 vdd.t147 sky130_fd_pr__pfet_01v8 ad=1.32 pd=8.33 as=1.32 ps=8.33 w=8 l=0.5
X44 gnd.t304 commonsourceibias.t16 commonsourceibias.t17 gnd.t244 sky130_fd_pr__nfet_01v8 ad=1.155 pd=7.33 as=1.155 ps=7.33 w=7 l=1
X45 CSoutput.t188 commonsourceibias.t51 gnd.t303 gnd.t209 sky130_fd_pr__nfet_01v8 ad=1.155 pd=7.33 as=2.73 ps=14.78 w=7 l=1
X46 a_n2140_13878.t14 a_n2318_13878.t31 a_n2318_13878.t32 vdd.t4 sky130_fd_pr__pfet_01v8 ad=1.485 pd=9.33 as=1.485 ps=9.33 w=9 l=0.5
X47 a_n2318_13878.t8 a_n2318_13878.t7 a_n2140_13878.t13 vdd.t125 sky130_fd_pr__pfet_01v8 ad=1.485 pd=9.33 as=1.485 ps=9.33 w=9 l=0.5
X48 output.t18 outputibias.t9 gnd.t321 gnd.t320 sky130_fd_pr__nfet_01v8 ad=2.34 pd=12.78 as=2.34 ps=12.78 w=6 l=2
X49 CSoutput.t104 a_n8300_8799.t47 vdd.t279 vdd.t188 sky130_fd_pr__pfet_01v8 ad=1.32 pd=8.33 as=1.32 ps=8.33 w=8 l=0.5
X50 a_n3827_n3924.t15 minus.t8 a_n2318_13878.t41 gnd.t8 sky130_fd_pr__nfet_01v8 ad=1.155 pd=7.33 as=1.155 ps=7.33 w=7 l=0.5
X51 vdd.t87 vdd.t85 vdd.t86 vdd.t62 sky130_fd_pr__pfet_01v8 ad=3.51 pd=18.78 as=0 ps=0 w=9 l=0.5
X52 vdd.t277 a_n8300_8799.t48 CSoutput.t103 vdd.t225 sky130_fd_pr__pfet_01v8 ad=1.32 pd=8.33 as=1.32 ps=8.33 w=8 l=0.5
X53 diffpairibias.t19 diffpairibias.t18 gnd.t173 gnd.t172 sky130_fd_pr__nfet_01v8 ad=2.73 pd=14.78 as=2.73 ps=14.78 w=7 l=1
X54 CSoutput.t187 commonsourceibias.t52 gnd.t302 gnd.t263 sky130_fd_pr__nfet_01v8 ad=1.155 pd=7.33 as=1.155 ps=7.33 w=7 l=1
X55 CSoutput.t186 commonsourceibias.t53 gnd.t301 gnd.t241 sky130_fd_pr__nfet_01v8 ad=1.155 pd=7.33 as=1.155 ps=7.33 w=7 l=1
X56 a_n8300_8799.t4 a_n2318_13878.t52 a_n2318_8322.t20 vdd.t9 sky130_fd_pr__pfet_01v8 ad=1.485 pd=9.33 as=1.485 ps=9.33 w=9 l=0.5
X57 CSoutput.t102 a_n8300_8799.t49 vdd.t276 vdd.t234 sky130_fd_pr__pfet_01v8 ad=1.32 pd=8.33 as=1.32 ps=8.33 w=8 l=0.5
X58 gnd.t149 gnd.t147 gnd.t148 gnd.t66 sky130_fd_pr__nfet_01v8 ad=2.73 pd=14.78 as=0 ps=0 w=7 l=1
X59 gnd.t146 gnd.t144 plus.t3 gnd.t145 sky130_fd_pr__nfet_01v8 ad=0.39 pd=2.78 as=0.165 ps=1.33 w=1 l=0.5
X60 vdd.t275 a_n8300_8799.t50 CSoutput.t101 vdd.t157 sky130_fd_pr__pfet_01v8 ad=1.32 pd=8.33 as=1.32 ps=8.33 w=8 l=0.5
X61 vdd.t274 a_n8300_8799.t51 CSoutput.t100 vdd.t247 sky130_fd_pr__pfet_01v8 ad=1.32 pd=8.33 as=1.32 ps=8.33 w=8 l=0.5
X62 minus.t4 gnd.t141 gnd.t143 gnd.t142 sky130_fd_pr__nfet_01v8 ad=0.165 pd=1.33 as=0.165 ps=1.33 w=1 l=0.5
X63 diffpairibias.t17 diffpairibias.t16 gnd.t194 gnd.t193 sky130_fd_pr__nfet_01v8 ad=2.73 pd=14.78 as=2.73 ps=14.78 w=7 l=1
X64 CSoutput.t99 a_n8300_8799.t52 vdd.t272 vdd.t164 sky130_fd_pr__pfet_01v8 ad=1.32 pd=8.33 as=1.32 ps=8.33 w=8 l=0.5
X65 gnd.t140 gnd.t138 gnd.t139 gnd.t66 sky130_fd_pr__nfet_01v8 ad=2.73 pd=14.78 as=0 ps=0 w=7 l=1
X66 CSoutput.t192 a_n2318_8322.t27 sky130_fd_pr__cap_mim_m3_1 l=12 w=12
X67 vdd.t273 a_n8300_8799.t53 CSoutput.t98 vdd.t142 sky130_fd_pr__pfet_01v8 ad=1.32 pd=8.33 as=1.32 ps=8.33 w=8 l=0.5
X68 CSoutput.t185 commonsourceibias.t54 gnd.t300 gnd.t241 sky130_fd_pr__nfet_01v8 ad=1.155 pd=7.33 as=1.155 ps=7.33 w=7 l=1
X69 CSoutput.t97 a_n8300_8799.t54 vdd.t271 vdd.t256 sky130_fd_pr__pfet_01v8 ad=1.32 pd=8.33 as=1.32 ps=8.33 w=8 l=0.5
X70 vdd.t84 vdd.t82 vdd.t83 vdd.t52 sky130_fd_pr__pfet_01v8 ad=3.12 pd=16.78 as=0 ps=0 w=8 l=0.5
X71 CSoutput.t96 a_n8300_8799.t55 vdd.t270 vdd.t182 sky130_fd_pr__pfet_01v8 ad=1.32 pd=8.33 as=3.12 ps=16.78 w=8 l=0.5
X72 CSoutput.t95 a_n8300_8799.t56 vdd.t269 vdd.t207 sky130_fd_pr__pfet_01v8 ad=1.32 pd=8.33 as=1.32 ps=8.33 w=8 l=0.5
X73 CSoutput.t94 a_n8300_8799.t57 vdd.t268 vdd.t256 sky130_fd_pr__pfet_01v8 ad=1.32 pd=8.33 as=1.32 ps=8.33 w=8 l=0.5
X74 output.t15 CSoutput.t193 vdd.t112 gnd.t31 sky130_fd_pr__nfet_01v8 ad=0.825 pd=5.33 as=0.825 ps=5.33 w=5 l=1
X75 gnd.t299 commonsourceibias.t55 CSoutput.t184 gnd.t227 sky130_fd_pr__nfet_01v8 ad=2.73 pd=14.78 as=1.155 ps=7.33 w=7 l=1
X76 CSoutput.t194 a_n2318_8322.t25 sky130_fd_pr__cap_mim_m3_1 l=12 w=12
X77 CSoutput.t183 commonsourceibias.t56 gnd.t298 gnd.t238 sky130_fd_pr__nfet_01v8 ad=1.155 pd=7.33 as=1.155 ps=7.33 w=7 l=1
X78 a_n8300_8799.t18 plus.t8 a_n3827_n3924.t23 gnd.t9 sky130_fd_pr__nfet_01v8 ad=1.155 pd=7.33 as=1.155 ps=7.33 w=7 l=0.5
X79 gnd.t297 commonsourceibias.t57 CSoutput.t182 gnd.t215 sky130_fd_pr__nfet_01v8 ad=2.73 pd=14.78 as=1.155 ps=7.33 w=7 l=1
X80 gnd.t137 gnd.t135 gnd.t136 gnd.t82 sky130_fd_pr__nfet_01v8 ad=2.73 pd=14.78 as=0 ps=0 w=7 l=1
X81 a_n3827_n3924.t34 diffpairibias.t22 gnd.t317 gnd.t316 sky130_fd_pr__nfet_01v8 ad=2.73 pd=14.78 as=2.73 ps=14.78 w=7 l=1
X82 vdd.t267 a_n8300_8799.t58 CSoutput.t93 vdd.t222 sky130_fd_pr__pfet_01v8 ad=1.32 pd=8.33 as=1.32 ps=8.33 w=8 l=0.5
X83 a_n3827_n3924.t37 minus.t9 a_n2318_13878.t47 gnd.t322 sky130_fd_pr__nfet_01v8 ad=1.155 pd=7.33 as=1.155 ps=7.33 w=7 l=0.5
X84 vdd.t262 a_n8300_8799.t59 CSoutput.t92 vdd.t252 sky130_fd_pr__pfet_01v8 ad=1.32 pd=8.33 as=1.32 ps=8.33 w=8 l=0.5
X85 CSoutput.t181 commonsourceibias.t58 gnd.t296 gnd.t199 sky130_fd_pr__nfet_01v8 ad=1.155 pd=7.33 as=1.155 ps=7.33 w=7 l=1
X86 a_n2318_13878.t34 a_n2318_13878.t33 a_n2140_13878.t12 vdd.t106 sky130_fd_pr__pfet_01v8 ad=1.485 pd=9.33 as=1.485 ps=9.33 w=9 l=0.5
X87 vdd.t266 a_n8300_8799.t60 CSoutput.t91 vdd.t198 sky130_fd_pr__pfet_01v8 ad=1.32 pd=8.33 as=1.32 ps=8.33 w=8 l=0.5
X88 vdd.t265 a_n8300_8799.t61 CSoutput.t90 vdd.t229 sky130_fd_pr__pfet_01v8 ad=1.32 pd=8.33 as=1.32 ps=8.33 w=8 l=0.5
X89 a_n8300_8799.t5 a_n2318_13878.t53 a_n2318_8322.t19 vdd.t10 sky130_fd_pr__pfet_01v8 ad=1.485 pd=9.33 as=1.485 ps=9.33 w=9 l=0.5
X90 vdd.t264 a_n8300_8799.t62 CSoutput.t89 vdd.t250 sky130_fd_pr__pfet_01v8 ad=1.32 pd=8.33 as=1.32 ps=8.33 w=8 l=0.5
X91 a_n2318_13878.t24 a_n2318_13878.t23 a_n2140_13878.t11 vdd.t107 sky130_fd_pr__pfet_01v8 ad=3.51 pd=18.78 as=1.485 ps=9.33 w=9 l=0.5
X92 a_n2318_13878.t6 minus.t10 a_n3827_n3924.t7 gnd.t11 sky130_fd_pr__nfet_01v8 ad=1.155 pd=7.33 as=1.155 ps=7.33 w=7 l=0.5
X93 a_n3827_n3924.t41 plus.t9 a_n8300_8799.t31 gnd.t15 sky130_fd_pr__nfet_01v8 ad=1.155 pd=7.33 as=1.155 ps=7.33 w=7 l=0.5
X94 outputibias.t7 outputibias.t6 gnd.t44 gnd.t43 sky130_fd_pr__nfet_01v8 ad=2.34 pd=12.78 as=2.34 ps=12.78 w=6 l=2
X95 commonsourceibias.t37 commonsourceibias.t36 gnd.t295 gnd.t217 sky130_fd_pr__nfet_01v8 ad=1.155 pd=7.33 as=1.155 ps=7.33 w=7 l=1
X96 gnd.t294 commonsourceibias.t59 CSoutput.t180 gnd.t225 sky130_fd_pr__nfet_01v8 ad=1.155 pd=7.33 as=1.155 ps=7.33 w=7 l=1
X97 CSoutput.t179 commonsourceibias.t60 gnd.t293 gnd.t213 sky130_fd_pr__nfet_01v8 ad=1.155 pd=7.33 as=1.155 ps=7.33 w=7 l=1
X98 vdd.t263 a_n8300_8799.t63 CSoutput.t88 vdd.t162 sky130_fd_pr__pfet_01v8 ad=1.32 pd=8.33 as=1.32 ps=8.33 w=8 l=0.5
X99 CSoutput.t87 a_n8300_8799.t64 vdd.t261 vdd.t202 sky130_fd_pr__pfet_01v8 ad=1.32 pd=8.33 as=1.32 ps=8.33 w=8 l=0.5
X100 gnd.t116 gnd.t114 gnd.t115 gnd.t78 sky130_fd_pr__nfet_01v8 ad=2.73 pd=14.78 as=0 ps=0 w=7 l=1
X101 outputibias.t5 outputibias.t4 gnd.t324 gnd.t323 sky130_fd_pr__nfet_01v8 ad=2.34 pd=12.78 as=2.34 ps=12.78 w=6 l=2
X102 diffpairibias.t15 diffpairibias.t14 gnd.t182 gnd.t181 sky130_fd_pr__nfet_01v8 ad=2.73 pd=14.78 as=2.73 ps=14.78 w=7 l=1
X103 a_n3827_n3924.t22 minus.t11 a_n2318_13878.t45 gnd.t38 sky130_fd_pr__nfet_01v8 ad=2.73 pd=14.78 as=1.155 ps=7.33 w=7 l=0.5
X104 vdd.t81 vdd.t79 vdd.t80 vdd.t66 sky130_fd_pr__pfet_01v8 ad=3.51 pd=18.78 as=0 ps=0 w=9 l=0.5
X105 vdd.t78 vdd.t76 vdd.t77 vdd.t28 sky130_fd_pr__pfet_01v8 ad=3.12 pd=16.78 as=0 ps=0 w=8 l=0.5
X106 CSoutput.t86 a_n8300_8799.t65 vdd.t260 vdd.t164 sky130_fd_pr__pfet_01v8 ad=1.32 pd=8.33 as=1.32 ps=8.33 w=8 l=0.5
X107 vdd.t75 vdd.t72 vdd.t74 vdd.t73 sky130_fd_pr__pfet_01v8 ad=3.51 pd=18.78 as=0 ps=0 w=9 l=0.5
X108 CSoutput.t85 a_n8300_8799.t66 vdd.t259 vdd.t134 sky130_fd_pr__pfet_01v8 ad=1.32 pd=8.33 as=1.32 ps=8.33 w=8 l=0.5
X109 vdd.t258 a_n8300_8799.t67 CSoutput.t84 vdd.t252 sky130_fd_pr__pfet_01v8 ad=1.32 pd=8.33 as=1.32 ps=8.33 w=8 l=0.5
X110 vdd.t101 a_n2318_13878.t54 a_n2318_8322.t7 vdd.t100 sky130_fd_pr__pfet_01v8 ad=1.485 pd=9.33 as=1.485 ps=9.33 w=9 l=0.5
X111 gnd.t292 commonsourceibias.t34 commonsourceibias.t35 gnd.t211 sky130_fd_pr__nfet_01v8 ad=1.155 pd=7.33 as=1.155 ps=7.33 w=7 l=1
X112 a_n2318_13878.t14 a_n2318_13878.t13 a_n2140_13878.t10 vdd.t3 sky130_fd_pr__pfet_01v8 ad=3.51 pd=18.78 as=1.485 ps=9.33 w=9 l=0.5
X113 vdd.t71 vdd.t69 vdd.t70 vdd.t52 sky130_fd_pr__pfet_01v8 ad=3.12 pd=16.78 as=0 ps=0 w=8 l=0.5
X114 output.t14 CSoutput.t195 vdd.t0 gnd.t0 sky130_fd_pr__nfet_01v8 ad=0.825 pd=5.33 as=0.825 ps=5.33 w=5 l=1
X115 CSoutput.t178 commonsourceibias.t61 gnd.t291 gnd.t250 sky130_fd_pr__nfet_01v8 ad=1.155 pd=7.33 as=1.155 ps=7.33 w=7 l=1
X116 a_n2318_8322.t6 a_n2318_13878.t55 vdd.t103 vdd.t102 sky130_fd_pr__pfet_01v8 ad=1.485 pd=9.33 as=1.485 ps=9.33 w=9 l=0.5
X117 a_n3827_n3924.t33 diffpairibias.t23 gnd.t17 gnd.t16 sky130_fd_pr__nfet_01v8 ad=2.73 pd=14.78 as=2.73 ps=14.78 w=7 l=1
X118 CSoutput.t83 a_n8300_8799.t68 vdd.t257 vdd.t256 sky130_fd_pr__pfet_01v8 ad=1.32 pd=8.33 as=1.32 ps=8.33 w=8 l=0.5
X119 CSoutput.t82 a_n8300_8799.t69 vdd.t255 vdd.t207 sky130_fd_pr__pfet_01v8 ad=1.32 pd=8.33 as=1.32 ps=8.33 w=8 l=0.5
X120 gnd.t289 commonsourceibias.t62 CSoutput.t177 gnd.t252 sky130_fd_pr__nfet_01v8 ad=1.155 pd=7.33 as=1.155 ps=7.33 w=7 l=1
X121 a_n2318_13878.t2 minus.t12 a_n3827_n3924.t2 gnd.t5 sky130_fd_pr__nfet_01v8 ad=1.155 pd=7.33 as=1.155 ps=7.33 w=7 l=0.5
X122 commonsourceibias.t33 commonsourceibias.t32 gnd.t290 gnd.t209 sky130_fd_pr__nfet_01v8 ad=1.155 pd=7.33 as=2.73 ps=14.78 w=7 l=1
X123 a_n3827_n3924.t38 plus.t10 a_n8300_8799.t28 gnd.t6 sky130_fd_pr__nfet_01v8 ad=1.155 pd=7.33 as=1.155 ps=7.33 w=7 l=0.5
X124 vdd.t131 a_n2318_13878.t56 a_n2140_13878.t22 vdd.t130 sky130_fd_pr__pfet_01v8 ad=1.485 pd=9.33 as=1.485 ps=9.33 w=9 l=0.5
X125 gnd.t288 commonsourceibias.t63 CSoutput.t176 gnd.t234 sky130_fd_pr__nfet_01v8 ad=1.155 pd=7.33 as=1.155 ps=7.33 w=7 l=1
X126 gnd.t134 gnd.t132 gnd.t133 gnd.t78 sky130_fd_pr__nfet_01v8 ad=2.73 pd=14.78 as=0 ps=0 w=7 l=1
X127 gnd.t131 gnd.t129 gnd.t130 gnd.t62 sky130_fd_pr__nfet_01v8 ad=2.73 pd=14.78 as=0 ps=0 w=7 l=1
X128 gnd.t287 commonsourceibias.t30 commonsourceibias.t31 gnd.t207 sky130_fd_pr__nfet_01v8 ad=1.155 pd=7.33 as=1.155 ps=7.33 w=7 l=1
X129 vdd.t68 vdd.t65 vdd.t67 vdd.t66 sky130_fd_pr__pfet_01v8 ad=3.51 pd=18.78 as=0 ps=0 w=9 l=0.5
X130 vdd.t253 a_n8300_8799.t70 CSoutput.t81 vdd.t252 sky130_fd_pr__pfet_01v8 ad=1.32 pd=8.33 as=1.32 ps=8.33 w=8 l=0.5
X131 vdd.t254 a_n8300_8799.t71 CSoutput.t80 vdd.t229 sky130_fd_pr__pfet_01v8 ad=1.32 pd=8.33 as=1.32 ps=8.33 w=8 l=0.5
X132 vdd.t251 a_n8300_8799.t72 CSoutput.t79 vdd.t250 sky130_fd_pr__pfet_01v8 ad=1.32 pd=8.33 as=1.32 ps=8.33 w=8 l=0.5
X133 CSoutput.t175 commonsourceibias.t64 gnd.t286 gnd.t238 sky130_fd_pr__nfet_01v8 ad=1.155 pd=7.33 as=1.155 ps=7.33 w=7 l=1
X134 a_n8300_8799.t16 plus.t11 a_n3827_n3924.t20 gnd.t3 sky130_fd_pr__nfet_01v8 ad=1.155 pd=7.33 as=2.73 ps=14.78 w=7 l=0.5
X135 commonsourceibias.t41 commonsourceibias.t40 gnd.t285 gnd.t203 sky130_fd_pr__nfet_01v8 ad=1.155 pd=7.33 as=1.155 ps=7.33 w=7 l=1
X136 vdd.t64 vdd.t61 vdd.t63 vdd.t62 sky130_fd_pr__pfet_01v8 ad=3.51 pd=18.78 as=0 ps=0 w=9 l=0.5
X137 a_n2318_8322.t5 a_n2318_13878.t57 vdd.t133 vdd.t132 sky130_fd_pr__pfet_01v8 ad=3.51 pd=18.78 as=1.485 ps=9.33 w=9 l=0.5
X138 gnd.t284 commonsourceibias.t65 CSoutput.t174 gnd.t219 sky130_fd_pr__nfet_01v8 ad=1.155 pd=7.33 as=1.155 ps=7.33 w=7 l=1
X139 a_n8300_8799.t10 a_n2318_13878.t58 a_n2318_8322.t18 vdd.t98 sky130_fd_pr__pfet_01v8 ad=1.485 pd=9.33 as=1.485 ps=9.33 w=9 l=0.5
X140 CSoutput.t78 a_n8300_8799.t73 vdd.t249 vdd.t174 sky130_fd_pr__pfet_01v8 ad=1.32 pd=8.33 as=1.32 ps=8.33 w=8 l=0.5
X141 diffpairibias.t13 diffpairibias.t12 gnd.t190 gnd.t189 sky130_fd_pr__nfet_01v8 ad=2.73 pd=14.78 as=2.73 ps=14.78 w=7 l=1
X142 vdd.t248 a_n8300_8799.t74 CSoutput.t77 vdd.t247 sky130_fd_pr__pfet_01v8 ad=1.32 pd=8.33 as=1.32 ps=8.33 w=8 l=0.5
X143 a_n2318_13878.t28 a_n2318_13878.t27 a_n2140_13878.t9 vdd.t118 sky130_fd_pr__pfet_01v8 ad=1.485 pd=9.33 as=1.485 ps=9.33 w=9 l=0.5
X144 vdd.t246 a_n8300_8799.t75 CSoutput.t76 vdd.t162 sky130_fd_pr__pfet_01v8 ad=1.32 pd=8.33 as=1.32 ps=8.33 w=8 l=0.5
X145 a_n8300_8799.t11 a_n2318_13878.t59 a_n2318_8322.t17 vdd.t99 sky130_fd_pr__pfet_01v8 ad=1.485 pd=9.33 as=1.485 ps=9.33 w=9 l=0.5
X146 CSoutput.t75 a_n8300_8799.t76 vdd.t245 vdd.t202 sky130_fd_pr__pfet_01v8 ad=1.32 pd=8.33 as=1.32 ps=8.33 w=8 l=0.5
X147 a_n2140_13878.t8 a_n2318_13878.t29 a_n2318_13878.t30 vdd.t10 sky130_fd_pr__pfet_01v8 ad=1.485 pd=9.33 as=1.485 ps=9.33 w=9 l=0.5
X148 vdd.t60 vdd.t58 vdd.t59 vdd.t28 sky130_fd_pr__pfet_01v8 ad=3.12 pd=16.78 as=0 ps=0 w=8 l=0.5
X149 plus.t2 gnd.t126 gnd.t128 gnd.t127 sky130_fd_pr__nfet_01v8 ad=0.165 pd=1.33 as=0.165 ps=1.33 w=1 l=0.5
X150 gnd.t283 commonsourceibias.t66 CSoutput.t173 gnd.t221 sky130_fd_pr__nfet_01v8 ad=1.155 pd=7.33 as=1.155 ps=7.33 w=7 l=1
X151 output.t13 CSoutput.t196 vdd.t1 gnd.t1 sky130_fd_pr__nfet_01v8 ad=0.825 pd=5.33 as=0.825 ps=5.33 w=5 l=1
X152 vdd.t110 CSoutput.t197 output.t12 gnd.t26 sky130_fd_pr__nfet_01v8 ad=0.825 pd=5.33 as=0.825 ps=5.33 w=5 l=1
X153 gnd.t282 commonsourceibias.t67 CSoutput.t172 gnd.t211 sky130_fd_pr__nfet_01v8 ad=1.155 pd=7.33 as=1.155 ps=7.33 w=7 l=1
X154 gnd.t125 gnd.t123 minus.t3 gnd.t124 sky130_fd_pr__nfet_01v8 ad=0.165 pd=1.33 as=0.165 ps=1.33 w=1 l=0.5
X155 CSoutput.t74 a_n8300_8799.t77 vdd.t244 vdd.t234 sky130_fd_pr__pfet_01v8 ad=1.32 pd=8.33 as=1.32 ps=8.33 w=8 l=0.5
X156 a_n2318_13878.t40 minus.t13 a_n3827_n3924.t13 gnd.t14 sky130_fd_pr__nfet_01v8 ad=1.155 pd=7.33 as=1.155 ps=7.33 w=7 l=0.5
X157 vdd.t120 a_n2318_13878.t60 a_n2318_8322.t4 vdd.t119 sky130_fd_pr__pfet_01v8 ad=1.485 pd=9.33 as=3.51 ps=18.78 w=9 l=0.5
X158 a_n2140_13878.t7 a_n2318_13878.t25 a_n2318_13878.t26 vdd.t113 sky130_fd_pr__pfet_01v8 ad=1.485 pd=9.33 as=3.51 ps=18.78 w=9 l=0.5
X159 vdd.t243 a_n8300_8799.t78 CSoutput.t73 vdd.t227 sky130_fd_pr__pfet_01v8 ad=1.32 pd=8.33 as=1.32 ps=8.33 w=8 l=0.5
X160 a_n2318_13878.t38 a_n2318_13878.t37 a_n2140_13878.t6 vdd.t12 sky130_fd_pr__pfet_01v8 ad=1.485 pd=9.33 as=1.485 ps=9.33 w=9 l=0.5
X161 gnd.t122 gnd.t120 gnd.t121 gnd.t82 sky130_fd_pr__nfet_01v8 ad=2.73 pd=14.78 as=0 ps=0 w=7 l=1
X162 vdd.t111 CSoutput.t198 output.t11 gnd.t27 sky130_fd_pr__nfet_01v8 ad=0.825 pd=5.33 as=0.825 ps=5.33 w=5 l=1
X163 CSoutput.t171 commonsourceibias.t68 gnd.t281 gnd.t199 sky130_fd_pr__nfet_01v8 ad=1.155 pd=7.33 as=1.155 ps=7.33 w=7 l=1
X164 gnd.t280 commonsourceibias.t69 CSoutput.t170 gnd.t227 sky130_fd_pr__nfet_01v8 ad=2.73 pd=14.78 as=1.155 ps=7.33 w=7 l=1
X165 gnd.t279 commonsourceibias.t70 CSoutput.t169 gnd.t225 sky130_fd_pr__nfet_01v8 ad=1.155 pd=7.33 as=1.155 ps=7.33 w=7 l=1
X166 vdd.t242 a_n8300_8799.t79 CSoutput.t72 vdd.t176 sky130_fd_pr__pfet_01v8 ad=1.32 pd=8.33 as=1.32 ps=8.33 w=8 l=0.5
X167 a_n3827_n3924.t32 diffpairibias.t24 gnd.t188 gnd.t187 sky130_fd_pr__nfet_01v8 ad=2.73 pd=14.78 as=2.73 ps=14.78 w=7 l=1
X168 a_n3827_n3924.t31 diffpairibias.t25 gnd.t169 gnd.t168 sky130_fd_pr__nfet_01v8 ad=2.73 pd=14.78 as=2.73 ps=14.78 w=7 l=1
X169 a_n2318_13878.t5 minus.t14 a_n3827_n3924.t6 gnd.t10 sky130_fd_pr__nfet_01v8 ad=1.155 pd=7.33 as=1.155 ps=7.33 w=7 l=0.5
X170 vdd.t241 a_n8300_8799.t80 CSoutput.t71 vdd.t222 sky130_fd_pr__pfet_01v8 ad=1.32 pd=8.33 as=1.32 ps=8.33 w=8 l=0.5
X171 vdd.t240 a_n8300_8799.t81 CSoutput.t70 vdd.t180 sky130_fd_pr__pfet_01v8 ad=3.12 pd=16.78 as=1.32 ps=8.33 w=8 l=0.5
X172 gnd.t119 gnd.t117 gnd.t118 gnd.t62 sky130_fd_pr__nfet_01v8 ad=2.73 pd=14.78 as=0 ps=0 w=7 l=1
X173 CSoutput.t69 a_n8300_8799.t82 vdd.t239 vdd.t140 sky130_fd_pr__pfet_01v8 ad=1.32 pd=8.33 as=1.32 ps=8.33 w=8 l=0.5
X174 CSoutput.t68 a_n8300_8799.t83 vdd.t238 vdd.t237 sky130_fd_pr__pfet_01v8 ad=1.32 pd=8.33 as=1.32 ps=8.33 w=8 l=0.5
X175 vdd.t108 CSoutput.t199 output.t10 gnd.t24 sky130_fd_pr__nfet_01v8 ad=0.825 pd=5.33 as=0.825 ps=5.33 w=5 l=1
X176 a_n2318_13878.t1 minus.t15 a_n3827_n3924.t1 gnd.t4 sky130_fd_pr__nfet_01v8 ad=1.155 pd=7.33 as=1.155 ps=7.33 w=7 l=0.5
X177 CSoutput.t67 a_n8300_8799.t84 vdd.t236 vdd.t214 sky130_fd_pr__pfet_01v8 ad=1.32 pd=8.33 as=1.32 ps=8.33 w=8 l=0.5
X178 CSoutput.t168 commonsourceibias.t71 gnd.t278 gnd.t263 sky130_fd_pr__nfet_01v8 ad=1.155 pd=7.33 as=1.155 ps=7.33 w=7 l=1
X179 output.t9 CSoutput.t200 vdd.t109 gnd.t25 sky130_fd_pr__nfet_01v8 ad=0.825 pd=5.33 as=0.825 ps=5.33 w=5 l=1
X180 gnd.t113 gnd.t111 gnd.t112 gnd.t66 sky130_fd_pr__nfet_01v8 ad=2.73 pd=14.78 as=0 ps=0 w=7 l=1
X181 gnd.t277 commonsourceibias.t72 CSoutput.t167 gnd.t234 sky130_fd_pr__nfet_01v8 ad=1.155 pd=7.33 as=1.155 ps=7.33 w=7 l=1
X182 diffpairibias.t11 diffpairibias.t10 gnd.t192 gnd.t191 sky130_fd_pr__nfet_01v8 ad=2.73 pd=14.78 as=2.73 ps=14.78 w=7 l=1
X183 a_n2140_13878.t21 a_n2318_13878.t61 vdd.t122 vdd.t121 sky130_fd_pr__pfet_01v8 ad=1.485 pd=9.33 as=1.485 ps=9.33 w=9 l=0.5
X184 vdd.t129 a_n2318_13878.t62 a_n2140_13878.t20 vdd.t128 sky130_fd_pr__pfet_01v8 ad=1.485 pd=9.33 as=1.485 ps=9.33 w=9 l=0.5
X185 CSoutput.t66 a_n8300_8799.t85 vdd.t235 vdd.t234 sky130_fd_pr__pfet_01v8 ad=1.32 pd=8.33 as=1.32 ps=8.33 w=8 l=0.5
X186 gnd.t276 commonsourceibias.t73 CSoutput.t166 gnd.t201 sky130_fd_pr__nfet_01v8 ad=1.155 pd=7.33 as=1.155 ps=7.33 w=7 l=1
X187 a_n3827_n3924.t14 plus.t12 a_n8300_8799.t14 gnd.t36 sky130_fd_pr__nfet_01v8 ad=1.155 pd=7.33 as=1.155 ps=7.33 w=7 l=0.5
X188 CSoutput.t165 commonsourceibias.t74 gnd.t275 gnd.t209 sky130_fd_pr__nfet_01v8 ad=1.155 pd=7.33 as=2.73 ps=14.78 w=7 l=1
X189 vdd.t228 a_n8300_8799.t86 CSoutput.t65 vdd.t227 sky130_fd_pr__pfet_01v8 ad=1.32 pd=8.33 as=1.32 ps=8.33 w=8 l=0.5
X190 output.t8 CSoutput.t201 vdd.t2 gnd.t2 sky130_fd_pr__nfet_01v8 ad=0.825 pd=5.33 as=0.825 ps=5.33 w=5 l=1
X191 vdd.t230 a_n8300_8799.t87 CSoutput.t64 vdd.t229 sky130_fd_pr__pfet_01v8 ad=1.32 pd=8.33 as=1.32 ps=8.33 w=8 l=0.5
X192 CSoutput.t63 a_n8300_8799.t88 vdd.t233 vdd.t194 sky130_fd_pr__pfet_01v8 ad=1.32 pd=8.33 as=1.32 ps=8.33 w=8 l=0.5
X193 gnd.t110 gnd.t108 gnd.t109 gnd.t49 sky130_fd_pr__nfet_01v8 ad=2.73 pd=14.78 as=0 ps=0 w=7 l=0.5
X194 plus.t1 gnd.t105 gnd.t107 gnd.t106 sky130_fd_pr__nfet_01v8 ad=0.165 pd=1.33 as=0.165 ps=1.33 w=1 l=0.5
X195 a_n2140_13878.t5 a_n2318_13878.t21 a_n2318_13878.t22 vdd.t9 sky130_fd_pr__pfet_01v8 ad=1.485 pd=9.33 as=1.485 ps=9.33 w=9 l=0.5
X196 diffpairibias.t9 diffpairibias.t8 gnd.t33 gnd.t32 sky130_fd_pr__nfet_01v8 ad=2.73 pd=14.78 as=2.73 ps=14.78 w=7 l=1
X197 a_n3827_n3924.t12 plus.t13 a_n8300_8799.t13 gnd.t30 sky130_fd_pr__nfet_01v8 ad=1.155 pd=7.33 as=1.155 ps=7.33 w=7 l=0.5
X198 gnd.t274 commonsourceibias.t75 CSoutput.t164 gnd.t221 sky130_fd_pr__nfet_01v8 ad=1.155 pd=7.33 as=1.155 ps=7.33 w=7 l=1
X199 gnd.t60 gnd.t58 gnd.t59 gnd.t52 sky130_fd_pr__nfet_01v8 ad=2.73 pd=14.78 as=0 ps=0 w=7 l=0.5
X200 gnd.t104 gnd.t102 minus.t2 gnd.t103 sky130_fd_pr__nfet_01v8 ad=0.39 pd=2.78 as=0.165 ps=1.33 w=1 l=0.5
X201 CSoutput.t202 a_n2318_8322.t26 sky130_fd_pr__cap_mim_m3_1 l=12 w=12
X202 gnd.t101 gnd.t99 gnd.t100 gnd.t62 sky130_fd_pr__nfet_01v8 ad=2.73 pd=14.78 as=0 ps=0 w=7 l=1
X203 vdd.t232 a_n8300_8799.t89 CSoutput.t62 vdd.t176 sky130_fd_pr__pfet_01v8 ad=1.32 pd=8.33 as=1.32 ps=8.33 w=8 l=0.5
X204 commonsourceibias.t39 commonsourceibias.t38 gnd.t273 gnd.t263 sky130_fd_pr__nfet_01v8 ad=1.155 pd=7.33 as=1.155 ps=7.33 w=7 l=1
X205 a_n2318_8322.t16 a_n2318_13878.t63 a_n8300_8799.t25 vdd.t11 sky130_fd_pr__pfet_01v8 ad=1.485 pd=9.33 as=1.485 ps=9.33 w=9 l=0.5
X206 CSoutput.t61 a_n8300_8799.t90 vdd.t231 vdd.t178 sky130_fd_pr__pfet_01v8 ad=1.32 pd=8.33 as=1.32 ps=8.33 w=8 l=0.5
X207 diffpairibias.t7 diffpairibias.t6 gnd.t40 gnd.t39 sky130_fd_pr__nfet_01v8 ad=2.73 pd=14.78 as=2.73 ps=14.78 w=7 l=1
X208 vdd.t226 a_n8300_8799.t91 CSoutput.t60 vdd.t225 sky130_fd_pr__pfet_01v8 ad=1.32 pd=8.33 as=1.32 ps=8.33 w=8 l=0.5
X209 vdd.t57 vdd.t55 vdd.t56 vdd.t38 sky130_fd_pr__pfet_01v8 ad=3.12 pd=16.78 as=0 ps=0 w=8 l=0.5
X210 vdd.t95 a_n2318_13878.t64 a_n2318_8322.t3 vdd.t94 sky130_fd_pr__pfet_01v8 ad=1.485 pd=9.33 as=3.51 ps=18.78 w=9 l=0.5
X211 vdd.t224 a_n8300_8799.t92 CSoutput.t59 vdd.t180 sky130_fd_pr__pfet_01v8 ad=3.12 pd=16.78 as=1.32 ps=8.33 w=8 l=0.5
X212 vdd.t223 a_n8300_8799.t93 CSoutput.t58 vdd.t222 sky130_fd_pr__pfet_01v8 ad=1.32 pd=8.33 as=1.32 ps=8.33 w=8 l=0.5
X213 gnd.t98 gnd.t95 gnd.t97 gnd.t96 sky130_fd_pr__nfet_01v8 ad=1.95 pd=10.78 as=0 ps=0 w=5 l=1
X214 CSoutput.t163 commonsourceibias.t76 gnd.t272 gnd.t205 sky130_fd_pr__nfet_01v8 ad=1.155 pd=7.33 as=1.155 ps=7.33 w=7 l=1
X215 CSoutput.t203 a_n2318_8322.t26 sky130_fd_pr__cap_mim_m3_1 l=12 w=12
X216 output.t17 outputibias.t10 gnd.t180 gnd.t179 sky130_fd_pr__nfet_01v8 ad=2.34 pd=12.78 as=2.34 ps=12.78 w=6 l=2
X217 gnd.t94 gnd.t92 gnd.t93 gnd.t78 sky130_fd_pr__nfet_01v8 ad=2.73 pd=14.78 as=0 ps=0 w=7 l=1
X218 commonsourceibias.t47 commonsourceibias.t46 gnd.t271 gnd.t241 sky130_fd_pr__nfet_01v8 ad=1.155 pd=7.33 as=1.155 ps=7.33 w=7 l=1
X219 CSoutput.t57 a_n8300_8799.t94 vdd.t221 vdd.t204 sky130_fd_pr__pfet_01v8 ad=1.32 pd=8.33 as=1.32 ps=8.33 w=8 l=0.5
X220 gnd.t91 gnd.t88 gnd.t90 gnd.t89 sky130_fd_pr__nfet_01v8 ad=2.73 pd=14.78 as=0 ps=0 w=7 l=1
X221 a_n2140_13878.t19 a_n2318_13878.t65 vdd.t97 vdd.t96 sky130_fd_pr__pfet_01v8 ad=3.51 pd=18.78 as=1.485 ps=9.33 w=9 l=0.5
X222 vdd.t54 vdd.t51 vdd.t53 vdd.t52 sky130_fd_pr__pfet_01v8 ad=3.12 pd=16.78 as=0 ps=0 w=8 l=0.5
X223 vdd.t50 vdd.t48 vdd.t49 vdd.t38 sky130_fd_pr__pfet_01v8 ad=3.12 pd=16.78 as=0 ps=0 w=8 l=0.5
X224 vdd.t123 CSoutput.t204 output.t7 gnd.t176 sky130_fd_pr__nfet_01v8 ad=0.825 pd=5.33 as=0.825 ps=5.33 w=5 l=1
X225 CSoutput.t162 commonsourceibias.t77 gnd.t270 gnd.t205 sky130_fd_pr__nfet_01v8 ad=1.155 pd=7.33 as=1.155 ps=7.33 w=7 l=1
X226 vdd.t220 a_n8300_8799.t95 CSoutput.t56 vdd.t198 sky130_fd_pr__pfet_01v8 ad=1.32 pd=8.33 as=1.32 ps=8.33 w=8 l=0.5
X227 gnd.t269 commonsourceibias.t78 CSoutput.t161 gnd.t252 sky130_fd_pr__nfet_01v8 ad=1.155 pd=7.33 as=1.155 ps=7.33 w=7 l=1
X228 output.t16 outputibias.t11 gnd.t319 gnd.t318 sky130_fd_pr__nfet_01v8 ad=2.34 pd=12.78 as=2.34 ps=12.78 w=6 l=2
X229 CSoutput.t55 a_n8300_8799.t96 vdd.t219 vdd.t214 sky130_fd_pr__pfet_01v8 ad=1.32 pd=8.33 as=1.32 ps=8.33 w=8 l=0.5
X230 CSoutput.t54 a_n8300_8799.t97 vdd.t218 vdd.t194 sky130_fd_pr__pfet_01v8 ad=1.32 pd=8.33 as=1.32 ps=8.33 w=8 l=0.5
X231 CSoutput.t53 a_n8300_8799.t98 vdd.t217 vdd.t196 sky130_fd_pr__pfet_01v8 ad=1.32 pd=8.33 as=1.32 ps=8.33 w=8 l=0.5
X232 gnd.t268 commonsourceibias.t44 commonsourceibias.t45 gnd.t215 sky130_fd_pr__nfet_01v8 ad=2.73 pd=14.78 as=1.155 ps=7.33 w=7 l=1
X233 gnd.t267 commonsourceibias.t79 CSoutput.t160 gnd.t227 sky130_fd_pr__nfet_01v8 ad=2.73 pd=14.78 as=1.155 ps=7.33 w=7 l=1
X234 CSoutput.t159 commonsourceibias.t80 gnd.t266 gnd.t213 sky130_fd_pr__nfet_01v8 ad=1.155 pd=7.33 as=1.155 ps=7.33 w=7 l=1
X235 gnd.t87 gnd.t85 minus.t1 gnd.t86 sky130_fd_pr__nfet_01v8 ad=0.165 pd=1.33 as=0.39 ps=2.78 w=1 l=0.5
X236 CSoutput.t158 commonsourceibias.t81 gnd.t265 gnd.t250 sky130_fd_pr__nfet_01v8 ad=1.155 pd=7.33 as=1.155 ps=7.33 w=7 l=1
X237 gnd.t84 gnd.t81 gnd.t83 gnd.t82 sky130_fd_pr__nfet_01v8 ad=2.73 pd=14.78 as=0 ps=0 w=7 l=1
X238 CSoutput.t157 commonsourceibias.t82 gnd.t264 gnd.t263 sky130_fd_pr__nfet_01v8 ad=1.155 pd=7.33 as=1.155 ps=7.33 w=7 l=1
X239 gnd.t262 commonsourceibias.t83 CSoutput.t156 gnd.t211 sky130_fd_pr__nfet_01v8 ad=1.155 pd=7.33 as=1.155 ps=7.33 w=7 l=1
X240 vdd.t216 a_n8300_8799.t99 CSoutput.t52 vdd.t190 sky130_fd_pr__pfet_01v8 ad=3.12 pd=16.78 as=1.32 ps=8.33 w=8 l=0.5
X241 a_n3827_n3924.t30 diffpairibias.t26 gnd.t186 gnd.t185 sky130_fd_pr__nfet_01v8 ad=2.73 pd=14.78 as=2.73 ps=14.78 w=7 l=1
X242 commonsourceibias.t43 commonsourceibias.t42 gnd.t261 gnd.t199 sky130_fd_pr__nfet_01v8 ad=1.155 pd=7.33 as=1.155 ps=7.33 w=7 l=1
X243 vdd.t117 a_n2318_13878.t66 a_n2318_8322.t2 vdd.t116 sky130_fd_pr__pfet_01v8 ad=1.485 pd=9.33 as=1.485 ps=9.33 w=9 l=0.5
X244 a_n2318_8322.t15 a_n2318_13878.t67 a_n8300_8799.t20 vdd.t118 sky130_fd_pr__pfet_01v8 ad=1.485 pd=9.33 as=1.485 ps=9.33 w=9 l=0.5
X245 CSoutput.t51 a_n8300_8799.t100 vdd.t215 vdd.t214 sky130_fd_pr__pfet_01v8 ad=1.32 pd=8.33 as=1.32 ps=8.33 w=8 l=0.5
X246 vdd.t213 a_n8300_8799.t101 CSoutput.t50 vdd.t136 sky130_fd_pr__pfet_01v8 ad=1.32 pd=8.33 as=1.32 ps=8.33 w=8 l=0.5
X247 CSoutput.t155 commonsourceibias.t84 gnd.t260 gnd.t223 sky130_fd_pr__nfet_01v8 ad=1.155 pd=7.33 as=1.155 ps=7.33 w=7 l=1
X248 CSoutput.t49 a_n8300_8799.t102 vdd.t212 vdd.t159 sky130_fd_pr__pfet_01v8 ad=1.32 pd=8.33 as=1.32 ps=8.33 w=8 l=0.5
X249 gnd.t259 commonsourceibias.t85 CSoutput.t154 gnd.t195 sky130_fd_pr__nfet_01v8 ad=1.155 pd=7.33 as=1.155 ps=7.33 w=7 l=1
X250 vdd.t211 a_n8300_8799.t103 CSoutput.t48 vdd.t185 sky130_fd_pr__pfet_01v8 ad=1.32 pd=8.33 as=1.32 ps=8.33 w=8 l=0.5