* NGSPICE file created from opamp.ext - technology: sky130A

.subckt opamp output vdd plus minus commonsourceibias outputibias diffpairibias gnd CSoutput
Cload output gnd 0.0p
X0 gnd.t200 gnd.t197 gnd.t199 gnd.t198 sky130_fd_pr__nfet_01v8 ad=2.34 pd=12.78 as=0 ps=0 w=6 l=2
X1 commonsourceibias.t47 commonsourceibias.t46 gnd.t290 gnd.t11 sky130_fd_pr__nfet_01v8 ad=1.155 pd=7.33 as=2.73 ps=14.78 w=7 l=1
X2 gnd.t273 commonsourceibias.t48 CSoutput.t49 gnd.t0 sky130_fd_pr__nfet_01v8 ad=1.155 pd=7.33 as=1.155 ps=7.33 w=7 l=1
X3 gnd.t196 gnd.t194 gnd.t195 gnd.t171 sky130_fd_pr__nfet_01v8 ad=2.73 pd=14.78 as=0 ps=0 w=7 l=1
X4 vdd.t161 vdd.t159 vdd.t160 vdd.t147 sky130_fd_pr__pfet_01v8_lvt ad=3.12 pd=16.78 as=0 ps=0 w=8 l=0.5
X5 vdd.t172 a_n6308_8799.t36 CSoutput.t86 vdd.t63 sky130_fd_pr__pfet_01v8_lvt ad=1.32 pd=8.33 as=1.32 ps=8.33 w=8 l=0.5
X6 a_n1986_8322.t23 a_n1986_13878.t48 vdd.t13 vdd.t12 sky130_fd_pr__pfet_01v8_lvt ad=1.485 pd=9.33 as=1.485 ps=9.33 w=9 l=0.5
X7 a_n1808_13878.t19 a_n1986_13878.t16 a_n1986_13878.t17 vdd.t180 sky130_fd_pr__pfet_01v8_lvt ad=1.485 pd=9.33 as=3.51 ps=18.78 w=9 l=0.5
X8 output.t19 outputibias.t8 gnd.t217 gnd.t216 sky130_fd_pr__nfet_01v8 ad=2.34 pd=12.78 as=2.34 ps=12.78 w=6 l=2
X9 gnd.t72 commonsourceibias.t49 CSoutput.t48 gnd.t46 sky130_fd_pr__nfet_01v8 ad=1.155 pd=7.33 as=1.155 ps=7.33 w=7 l=1
X10 vdd.t45 CSoutput.t120 output.t15 gnd.t51 sky130_fd_pr__nfet_01v8_lvt ad=0.825 pd=5.33 as=1.95 ps=10.78 w=5 l=1
X11 a_n1986_13878.t5 a_n1986_13878.t4 a_n1808_13878.t18 vdd.t175 sky130_fd_pr__pfet_01v8_lvt ad=1.485 pd=9.33 as=1.485 ps=9.33 w=9 l=0.5
X12 a_n1808_13878.t17 a_n1986_13878.t8 a_n1986_13878.t9 vdd.t21 sky130_fd_pr__pfet_01v8_lvt ad=1.485 pd=9.33 as=1.485 ps=9.33 w=9 l=0.5
X13 vdd.t158 vdd.t156 vdd.t157 vdd.t130 sky130_fd_pr__pfet_01v8_lvt ad=3.51 pd=18.78 as=0 ps=0 w=9 l=0.5
X14 CSoutput.t87 a_n6308_8799.t37 vdd.t173 vdd.t66 sky130_fd_pr__pfet_01v8_lvt ad=1.32 pd=8.33 as=1.32 ps=8.33 w=8 l=0.5
X15 a_n1808_13878.t7 a_n1986_13878.t49 vdd.t15 vdd.t14 sky130_fd_pr__pfet_01v8_lvt ad=1.485 pd=9.33 as=1.485 ps=9.33 w=9 l=0.5
X16 vdd.t155 vdd.t153 vdd.t154 vdd.t147 sky130_fd_pr__pfet_01v8_lvt ad=3.12 pd=16.78 as=0 ps=0 w=8 l=0.5
X17 vdd.t152 vdd.t150 vdd.t151 vdd.t98 sky130_fd_pr__pfet_01v8_lvt ad=3.12 pd=16.78 as=0 ps=0 w=8 l=0.5
X18 gnd.t92 commonsourceibias.t44 commonsourceibias.t45 gnd.t61 sky130_fd_pr__nfet_01v8 ad=1.155 pd=7.33 as=1.155 ps=7.33 w=7 l=1
X19 vdd.t39 CSoutput.t121 output.t14 gnd.t52 sky130_fd_pr__nfet_01v8_lvt ad=0.825 pd=5.33 as=0.825 ps=5.33 w=5 l=1
X20 CSoutput.t74 a_n6308_8799.t38 vdd.t71 vdd.t0 sky130_fd_pr__pfet_01v8_lvt ad=1.32 pd=8.33 as=1.32 ps=8.33 w=8 l=0.5
X21 gnd.t62 commonsourceibias.t50 CSoutput.t47 gnd.t61 sky130_fd_pr__nfet_01v8 ad=1.155 pd=7.33 as=1.155 ps=7.33 w=7 l=1
X22 gnd.t193 gnd.t191 gnd.t192 gnd.t142 sky130_fd_pr__nfet_01v8 ad=2.73 pd=14.78 as=0 ps=0 w=7 l=0.5
X23 outputibias.t7 outputibias.t6 gnd.t21 gnd.t20 sky130_fd_pr__nfet_01v8 ad=2.34 pd=12.78 as=2.34 ps=12.78 w=6 l=2
X24 CSoutput.t75 a_n6308_8799.t39 vdd.t73 vdd.t72 sky130_fd_pr__pfet_01v8_lvt ad=1.32 pd=8.33 as=1.32 ps=8.33 w=8 l=0.5
X25 minus.t4 gnd.t188 gnd.t190 gnd.t189 sky130_fd_pr__nfet_01v8 ad=0.165 pd=1.33 as=0.165 ps=1.33 w=1 l=0.5
X26 gnd.t187 gnd.t186 plus.t4 gnd.t142 sky130_fd_pr__nfet_01v8 ad=0.165 pd=1.33 as=0.165 ps=1.33 w=1 l=0.5
X27 a_n6308_8799.t29 plus.t5 a_n2903_n3924.t25 gnd.t234 sky130_fd_pr__nfet_01v8 ad=1.155 pd=7.33 as=1.155 ps=7.33 w=7 l=0.5
X28 gnd.t185 gnd.t183 gnd.t184 gnd.t138 sky130_fd_pr__nfet_01v8 ad=2.73 pd=14.78 as=0 ps=0 w=7 l=0.5
X29 a_n1986_8322.t15 a_n1986_13878.t50 a_n6308_8799.t20 vdd.t85 sky130_fd_pr__pfet_01v8_lvt ad=1.485 pd=9.33 as=1.485 ps=9.33 w=9 l=0.5
X30 gnd.t261 commonsourceibias.t42 commonsourceibias.t43 gnd.t206 sky130_fd_pr__nfet_01v8 ad=1.155 pd=7.33 as=1.155 ps=7.33 w=7 l=1
X31 a_n6308_8799.t12 plus.t6 a_n2903_n3924.t24 gnd.t89 sky130_fd_pr__nfet_01v8 ad=1.155 pd=7.33 as=1.155 ps=7.33 w=7 l=0.5
X32 CSoutput.t46 commonsourceibias.t51 gnd.t58 gnd.t4 sky130_fd_pr__nfet_01v8 ad=1.155 pd=7.33 as=1.155 ps=7.33 w=7 l=1
X33 CSoutput.t122 a_n1986_8322.t0 sky130_fd_pr__cap_mim_m3_1 l=12 w=12
X34 gnd.t29 commonsourceibias.t40 commonsourceibias.t41 gnd.t22 sky130_fd_pr__nfet_01v8 ad=1.155 pd=7.33 as=1.155 ps=7.33 w=7 l=1
X35 CSoutput.t72 a_n6308_8799.t40 vdd.t68 vdd.t60 sky130_fd_pr__pfet_01v8_lvt ad=1.32 pd=8.33 as=1.32 ps=8.33 w=8 l=0.5
X36 vdd.t70 a_n6308_8799.t41 CSoutput.t73 vdd.t69 sky130_fd_pr__pfet_01v8_lvt ad=1.32 pd=8.33 as=1.32 ps=8.33 w=8 l=0.5
X37 a_n6308_8799.t21 a_n1986_13878.t51 a_n1986_8322.t14 vdd.t180 sky130_fd_pr__pfet_01v8_lvt ad=1.485 pd=9.33 as=3.51 ps=18.78 w=9 l=0.5
X38 CSoutput.t52 a_n6308_8799.t42 vdd.t9 vdd.t8 sky130_fd_pr__pfet_01v8_lvt ad=1.32 pd=8.33 as=3.12 ps=16.78 w=8 l=0.5
X39 vdd.t11 a_n6308_8799.t43 CSoutput.t53 vdd.t10 sky130_fd_pr__pfet_01v8_lvt ad=1.32 pd=8.33 as=1.32 ps=8.33 w=8 l=0.5
X40 a_n2903_n3924.t54 minus.t5 a_n1986_13878.t47 gnd.t33 sky130_fd_pr__nfet_01v8 ad=1.155 pd=7.33 as=1.155 ps=7.33 w=7 l=0.5
X41 CSoutput.t45 commonsourceibias.t52 gnd.t215 gnd.t68 sky130_fd_pr__nfet_01v8 ad=1.155 pd=7.33 as=1.155 ps=7.33 w=7 l=1
X42 a_n2903_n3924.t1 diffpairibias.t16 gnd.t10 gnd.t9 sky130_fd_pr__nfet_01v8 ad=2.73 pd=14.78 as=2.73 ps=14.78 w=7 l=1
X43 vdd.t149 vdd.t146 vdd.t148 vdd.t147 sky130_fd_pr__pfet_01v8_lvt ad=3.12 pd=16.78 as=0 ps=0 w=8 l=0.5
X44 a_n1986_13878.t44 minus.t6 a_n2903_n3924.t53 gnd.t209 sky130_fd_pr__nfet_01v8 ad=1.155 pd=7.33 as=1.155 ps=7.33 w=7 l=0.5
X45 a_n2903_n3924.t23 plus.t7 a_n6308_8799.t5 gnd.t59 sky130_fd_pr__nfet_01v8 ad=1.155 pd=7.33 as=1.155 ps=7.33 w=7 l=0.5
X46 output.t13 CSoutput.t123 vdd.t40 gnd.t224 sky130_fd_pr__nfet_01v8_lvt ad=0.825 pd=5.33 as=0.825 ps=5.33 w=5 l=1
X47 vdd.t50 CSoutput.t124 output.t12 gnd.t225 sky130_fd_pr__nfet_01v8_lvt ad=0.825 pd=5.33 as=0.825 ps=5.33 w=5 l=1
X48 CSoutput.t44 commonsourceibias.t53 gnd.t65 gnd.t64 sky130_fd_pr__nfet_01v8 ad=1.155 pd=7.33 as=1.155 ps=7.33 w=7 l=1
X49 a_n2903_n3924.t22 plus.t8 a_n6308_8799.t23 gnd.t219 sky130_fd_pr__nfet_01v8 ad=1.155 pd=7.33 as=1.155 ps=7.33 w=7 l=0.5
X50 a_n2903_n3924.t52 minus.t7 a_n1986_13878.t39 gnd.t241 sky130_fd_pr__nfet_01v8 ad=1.155 pd=7.33 as=1.155 ps=7.33 w=7 l=0.5
X51 CSoutput.t110 a_n6308_8799.t44 vdd.t222 vdd.t32 sky130_fd_pr__pfet_01v8_lvt ad=1.32 pd=8.33 as=1.32 ps=8.33 w=8 l=0.5
X52 CSoutput.t111 a_n6308_8799.t45 vdd.t223 vdd.t66 sky130_fd_pr__pfet_01v8_lvt ad=1.32 pd=8.33 as=1.32 ps=8.33 w=8 l=0.5
X53 vdd.t145 vdd.t143 vdd.t144 vdd.t87 sky130_fd_pr__pfet_01v8_lvt ad=3.12 pd=16.78 as=0 ps=0 w=8 l=0.5
X54 CSoutput.t43 commonsourceibias.t54 gnd.t12 gnd.t11 sky130_fd_pr__nfet_01v8 ad=1.155 pd=7.33 as=2.73 ps=14.78 w=7 l=1
X55 CSoutput.t114 a_n6308_8799.t46 vdd.t226 vdd.t72 sky130_fd_pr__pfet_01v8_lvt ad=1.32 pd=8.33 as=1.32 ps=8.33 w=8 l=0.5
X56 a_n2903_n3924.t51 minus.t8 a_n1986_13878.t38 gnd.t240 sky130_fd_pr__nfet_01v8 ad=1.155 pd=7.33 as=1.155 ps=7.33 w=7 l=0.5
X57 a_n1808_13878.t16 a_n1986_13878.t22 a_n1986_13878.t23 vdd.t79 sky130_fd_pr__pfet_01v8_lvt ad=1.485 pd=9.33 as=3.51 ps=18.78 w=9 l=0.5
X58 vdd.t227 a_n6308_8799.t47 CSoutput.t115 vdd.t10 sky130_fd_pr__pfet_01v8_lvt ad=1.32 pd=8.33 as=1.32 ps=8.33 w=8 l=0.5
X59 diffpairibias.t15 diffpairibias.t14 gnd.t283 gnd.t282 sky130_fd_pr__nfet_01v8 ad=2.73 pd=14.78 as=2.73 ps=14.78 w=7 l=1
X60 a_n1986_13878.t15 a_n1986_13878.t14 a_n1808_13878.t15 vdd.t192 sky130_fd_pr__pfet_01v8_lvt ad=1.485 pd=9.33 as=1.485 ps=9.33 w=9 l=0.5
X61 CSoutput.t62 a_n6308_8799.t48 vdd.t35 vdd.t34 sky130_fd_pr__pfet_01v8_lvt ad=1.32 pd=8.33 as=1.32 ps=8.33 w=8 l=0.5
X62 gnd.t182 gnd.t180 gnd.t181 gnd.t171 sky130_fd_pr__nfet_01v8 ad=2.73 pd=14.78 as=0 ps=0 w=7 l=1
X63 vdd.t142 vdd.t140 vdd.t141 vdd.t115 sky130_fd_pr__pfet_01v8_lvt ad=3.51 pd=18.78 as=0 ps=0 w=9 l=0.5
X64 gnd.t179 gnd.t177 plus.t3 gnd.t178 sky130_fd_pr__nfet_01v8 ad=0.165 pd=1.33 as=0.39 ps=2.78 w=1 l=0.5
X65 a_n1986_13878.t37 minus.t9 a_n2903_n3924.t50 gnd.t26 sky130_fd_pr__nfet_01v8 ad=1.155 pd=7.33 as=2.73 ps=14.78 w=7 l=0.5
X66 gnd.t47 commonsourceibias.t55 CSoutput.t42 gnd.t46 sky130_fd_pr__nfet_01v8 ad=1.155 pd=7.33 as=1.155 ps=7.33 w=7 l=1
X67 gnd.t28 commonsourceibias.t56 CSoutput.t41 gnd.t27 sky130_fd_pr__nfet_01v8 ad=1.155 pd=7.33 as=1.155 ps=7.33 w=7 l=1
X68 diffpairibias.t13 diffpairibias.t12 gnd.t37 gnd.t36 sky130_fd_pr__nfet_01v8 ad=2.73 pd=14.78 as=2.73 ps=14.78 w=7 l=1
X69 gnd.t287 commonsourceibias.t57 CSoutput.t40 gnd.t22 sky130_fd_pr__nfet_01v8 ad=1.155 pd=7.33 as=1.155 ps=7.33 w=7 l=1
X70 commonsourceibias.t39 commonsourceibias.t38 gnd.t90 gnd.t4 sky130_fd_pr__nfet_01v8 ad=1.155 pd=7.33 as=1.155 ps=7.33 w=7 l=1
X71 vdd.t36 a_n6308_8799.t49 CSoutput.t63 vdd.t10 sky130_fd_pr__pfet_01v8_lvt ad=1.32 pd=8.33 as=1.32 ps=8.33 w=8 l=0.5
X72 vdd.t43 CSoutput.t125 output.t11 gnd.t75 sky130_fd_pr__nfet_01v8_lvt ad=0.825 pd=5.33 as=0.825 ps=5.33 w=5 l=1
X73 vdd.t218 a_n6308_8799.t50 CSoutput.t108 vdd.t213 sky130_fd_pr__pfet_01v8_lvt ad=1.32 pd=8.33 as=1.32 ps=8.33 w=8 l=0.5
X74 CSoutput.t109 a_n6308_8799.t51 vdd.t219 vdd.t8 sky130_fd_pr__pfet_01v8_lvt ad=1.32 pd=8.33 as=3.12 ps=16.78 w=8 l=0.5
X75 plus.t2 gnd.t174 gnd.t176 gnd.t175 sky130_fd_pr__nfet_01v8 ad=0.165 pd=1.33 as=0.165 ps=1.33 w=1 l=0.5
X76 vdd.t31 a_n6308_8799.t52 CSoutput.t60 vdd.t2 sky130_fd_pr__pfet_01v8_lvt ad=1.32 pd=8.33 as=1.32 ps=8.33 w=8 l=0.5
X77 gnd.t280 commonsourceibias.t58 CSoutput.t39 gnd.t83 sky130_fd_pr__nfet_01v8 ad=1.155 pd=7.33 as=1.155 ps=7.33 w=7 l=1
X78 a_n6308_8799.t26 plus.t9 a_n2903_n3924.t21 gnd.t232 sky130_fd_pr__nfet_01v8 ad=1.155 pd=7.33 as=1.155 ps=7.33 w=7 l=0.5
X79 commonsourceibias.t37 commonsourceibias.t36 gnd.t208 gnd.t16 sky130_fd_pr__nfet_01v8 ad=1.155 pd=7.33 as=1.155 ps=7.33 w=7 l=1
X80 CSoutput.t61 a_n6308_8799.t53 vdd.t33 vdd.t32 sky130_fd_pr__pfet_01v8_lvt ad=1.32 pd=8.33 as=1.32 ps=8.33 w=8 l=0.5
X81 CSoutput.t92 a_n6308_8799.t54 vdd.t190 vdd.t189 sky130_fd_pr__pfet_01v8_lvt ad=1.32 pd=8.33 as=1.32 ps=8.33 w=8 l=0.5
X82 a_n2903_n3924.t26 diffpairibias.t17 gnd.t35 gnd.t34 sky130_fd_pr__nfet_01v8 ad=2.73 pd=14.78 as=2.73 ps=14.78 w=7 l=1
X83 gnd.t211 commonsourceibias.t34 commonsourceibias.t35 gnd.t83 sky130_fd_pr__nfet_01v8 ad=1.155 pd=7.33 as=1.155 ps=7.33 w=7 l=1
X84 CSoutput.t93 a_n6308_8799.t55 vdd.t191 vdd.t189 sky130_fd_pr__pfet_01v8_lvt ad=1.32 pd=8.33 as=1.32 ps=8.33 w=8 l=0.5
X85 a_n2903_n3924.t49 minus.t10 a_n1986_13878.t36 gnd.t239 sky130_fd_pr__nfet_01v8 ad=1.155 pd=7.33 as=1.155 ps=7.33 w=7 l=0.5
X86 vdd.t216 a_n6308_8799.t56 CSoutput.t106 vdd.t29 sky130_fd_pr__pfet_01v8_lvt ad=1.32 pd=8.33 as=1.32 ps=8.33 w=8 l=0.5
X87 a_n2903_n3924.t20 plus.t10 a_n6308_8799.t24 gnd.t220 sky130_fd_pr__nfet_01v8 ad=1.155 pd=7.33 as=1.155 ps=7.33 w=7 l=0.5
X88 a_n1986_13878.t43 minus.t11 a_n2903_n3924.t48 gnd.t93 sky130_fd_pr__nfet_01v8 ad=1.155 pd=7.33 as=1.155 ps=7.33 w=7 l=0.5
X89 gnd.t88 commonsourceibias.t32 commonsourceibias.t33 gnd.t87 sky130_fd_pr__nfet_01v8 ad=2.73 pd=14.78 as=1.155 ps=7.33 w=7 l=1
X90 commonsourceibias.t31 commonsourceibias.t30 gnd.t267 gnd.t64 sky130_fd_pr__nfet_01v8 ad=1.155 pd=7.33 as=1.155 ps=7.33 w=7 l=1
X91 a_n1986_13878.t7 a_n1986_13878.t6 a_n1808_13878.t14 vdd.t85 sky130_fd_pr__pfet_01v8_lvt ad=1.485 pd=9.33 as=1.485 ps=9.33 w=9 l=0.5
X92 outputibias.t5 outputibias.t4 gnd.t289 gnd.t288 sky130_fd_pr__nfet_01v8 ad=2.34 pd=12.78 as=2.34 ps=12.78 w=6 l=2
X93 a_n1986_13878.t19 a_n1986_13878.t18 a_n1808_13878.t13 vdd.t76 sky130_fd_pr__pfet_01v8_lvt ad=3.51 pd=18.78 as=1.485 ps=9.33 w=9 l=0.5
X94 vdd.t217 a_n6308_8799.t57 CSoutput.t107 vdd.t69 sky130_fd_pr__pfet_01v8_lvt ad=1.32 pd=8.33 as=1.32 ps=8.33 w=8 l=0.5
X95 vdd.t28 a_n6308_8799.t58 CSoutput.t58 vdd.t24 sky130_fd_pr__pfet_01v8_lvt ad=1.32 pd=8.33 as=1.32 ps=8.33 w=8 l=0.5
X96 a_n6308_8799.t22 a_n1986_13878.t52 a_n1986_8322.t13 vdd.t181 sky130_fd_pr__pfet_01v8_lvt ad=1.485 pd=9.33 as=1.485 ps=9.33 w=9 l=0.5
X97 CSoutput.t38 commonsourceibias.t59 gnd.t91 gnd.t68 sky130_fd_pr__nfet_01v8 ad=1.155 pd=7.33 as=1.155 ps=7.33 w=7 l=1
X98 vdd.t30 a_n6308_8799.t59 CSoutput.t59 vdd.t29 sky130_fd_pr__pfet_01v8_lvt ad=1.32 pd=8.33 as=1.32 ps=8.33 w=8 l=0.5
X99 a_n2903_n3924.t47 minus.t12 a_n1986_13878.t45 gnd.t60 sky130_fd_pr__nfet_01v8 ad=2.73 pd=14.78 as=1.155 ps=7.33 w=7 l=0.5
X100 CSoutput.t37 commonsourceibias.t60 gnd.t245 gnd.t18 sky130_fd_pr__nfet_01v8 ad=1.155 pd=7.33 as=1.155 ps=7.33 w=7 l=1
X101 vdd.t187 a_n6308_8799.t60 CSoutput.t90 vdd.t186 sky130_fd_pr__pfet_01v8_lvt ad=3.12 pd=16.78 as=1.32 ps=8.33 w=8 l=0.5
X102 gnd.t250 commonsourceibias.t61 CSoutput.t36 gnd.t87 sky130_fd_pr__nfet_01v8 ad=2.73 pd=14.78 as=1.155 ps=7.33 w=7 l=1
X103 gnd.t173 gnd.t170 gnd.t172 gnd.t171 sky130_fd_pr__nfet_01v8 ad=2.73 pd=14.78 as=0 ps=0 w=7 l=1
X104 commonsourceibias.t29 commonsourceibias.t28 gnd.t86 gnd.t81 sky130_fd_pr__nfet_01v8 ad=1.155 pd=7.33 as=1.155 ps=7.33 w=7 l=1
X105 CSoutput.t91 a_n6308_8799.t61 vdd.t188 vdd.t166 sky130_fd_pr__pfet_01v8_lvt ad=1.32 pd=8.33 as=1.32 ps=8.33 w=8 l=0.5
X106 CSoutput.t35 commonsourceibias.t62 gnd.t259 gnd.t11 sky130_fd_pr__nfet_01v8 ad=1.155 pd=7.33 as=2.73 ps=14.78 w=7 l=1
X107 CSoutput.t126 a_n1986_8322.t1 sky130_fd_pr__cap_mim_m3_1 l=12 w=12
X108 outputibias.t3 outputibias.t2 gnd.t279 gnd.t278 sky130_fd_pr__nfet_01v8 ad=2.34 pd=12.78 as=2.34 ps=12.78 w=6 l=2
X109 vdd.t214 a_n6308_8799.t62 CSoutput.t104 vdd.t213 sky130_fd_pr__pfet_01v8_lvt ad=1.32 pd=8.33 as=1.32 ps=8.33 w=8 l=0.5
X110 vdd.t139 vdd.t137 vdd.t138 vdd.t123 sky130_fd_pr__pfet_01v8_lvt ad=3.51 pd=18.78 as=0 ps=0 w=9 l=0.5
X111 vdd.t136 vdd.t133 vdd.t135 vdd.t134 sky130_fd_pr__pfet_01v8_lvt ad=3.51 pd=18.78 as=0 ps=0 w=9 l=0.5
X112 a_n1986_13878.t46 minus.t13 a_n2903_n3924.t46 gnd.t80 sky130_fd_pr__nfet_01v8 ad=1.155 pd=7.33 as=1.155 ps=7.33 w=7 l=0.5
X113 a_n2903_n3924.t30 diffpairibias.t18 gnd.t238 gnd.t237 sky130_fd_pr__nfet_01v8 ad=2.73 pd=14.78 as=2.73 ps=14.78 w=7 l=1
X114 vdd.t132 vdd.t129 vdd.t131 vdd.t130 sky130_fd_pr__pfet_01v8_lvt ad=3.51 pd=18.78 as=0 ps=0 w=9 l=0.5
X115 commonsourceibias.t27 commonsourceibias.t26 gnd.t19 gnd.t18 sky130_fd_pr__nfet_01v8 ad=1.155 pd=7.33 as=1.155 ps=7.33 w=7 l=1
X116 vdd.t183 a_n1986_13878.t53 a_n1986_8322.t22 vdd.t182 sky130_fd_pr__pfet_01v8_lvt ad=1.485 pd=9.33 as=1.485 ps=9.33 w=9 l=0.5
X117 vdd.t128 vdd.t126 vdd.t127 vdd.t119 sky130_fd_pr__pfet_01v8_lvt ad=3.51 pd=18.78 as=0 ps=0 w=9 l=0.5
X118 gnd.t169 gnd.t167 minus.t3 gnd.t168 sky130_fd_pr__nfet_01v8 ad=0.165 pd=1.33 as=0.39 ps=2.78 w=1 l=0.5
X119 a_n2903_n3924.t19 plus.t11 a_n6308_8799.t4 gnd.t50 sky130_fd_pr__nfet_01v8 ad=1.155 pd=7.33 as=1.155 ps=7.33 w=7 l=0.5
X120 CSoutput.t105 a_n6308_8799.t63 vdd.t215 vdd.t189 sky130_fd_pr__pfet_01v8_lvt ad=1.32 pd=8.33 as=1.32 ps=8.33 w=8 l=0.5
X121 a_n1986_8322.t21 a_n1986_13878.t54 vdd.t18 vdd.t17 sky130_fd_pr__pfet_01v8_lvt ad=1.485 pd=9.33 as=1.485 ps=9.33 w=9 l=0.5
X122 vdd.t170 a_n6308_8799.t64 CSoutput.t84 vdd.t29 sky130_fd_pr__pfet_01v8_lvt ad=1.32 pd=8.33 as=1.32 ps=8.33 w=8 l=0.5
X123 gnd.t55 commonsourceibias.t24 commonsourceibias.t25 gnd.t46 sky130_fd_pr__nfet_01v8 ad=1.155 pd=7.33 as=1.155 ps=7.33 w=7 l=1
X124 gnd.t246 commonsourceibias.t63 CSoutput.t34 gnd.t27 sky130_fd_pr__nfet_01v8 ad=1.155 pd=7.33 as=1.155 ps=7.33 w=7 l=1
X125 vdd.t20 a_n1986_13878.t55 a_n1808_13878.t6 vdd.t19 sky130_fd_pr__pfet_01v8_lvt ad=1.485 pd=9.33 as=1.485 ps=9.33 w=9 l=0.5
X126 gnd.t23 commonsourceibias.t64 CSoutput.t33 gnd.t22 sky130_fd_pr__nfet_01v8 ad=1.155 pd=7.33 as=1.155 ps=7.33 w=7 l=1
X127 a_n1986_13878.t40 minus.t14 a_n2903_n3924.t45 gnd.t242 sky130_fd_pr__nfet_01v8 ad=1.155 pd=7.33 as=1.155 ps=7.33 w=7 l=0.5
X128 a_n6308_8799.t2 plus.t12 a_n2903_n3924.t18 gnd.t32 sky130_fd_pr__nfet_01v8 ad=1.155 pd=7.33 as=2.73 ps=14.78 w=7 l=0.5
X129 gnd.t25 commonsourceibias.t65 CSoutput.t32 gnd.t24 sky130_fd_pr__nfet_01v8 ad=2.73 pd=14.78 as=1.155 ps=7.33 w=7 l=1
X130 vdd.t125 vdd.t122 vdd.t124 vdd.t123 sky130_fd_pr__pfet_01v8_lvt ad=3.51 pd=18.78 as=0 ps=0 w=9 l=0.5
X131 diffpairibias.t11 diffpairibias.t10 gnd.t272 gnd.t271 sky130_fd_pr__nfet_01v8 ad=2.73 pd=14.78 as=2.73 ps=14.78 w=7 l=1
X132 vdd.t44 CSoutput.t127 output.t10 gnd.t76 sky130_fd_pr__nfet_01v8_lvt ad=0.825 pd=5.33 as=0.825 ps=5.33 w=5 l=1
X133 vdd.t121 vdd.t118 vdd.t120 vdd.t119 sky130_fd_pr__pfet_01v8_lvt ad=3.51 pd=18.78 as=0 ps=0 w=9 l=0.5
X134 vdd.t171 a_n6308_8799.t65 CSoutput.t85 vdd.t69 sky130_fd_pr__pfet_01v8_lvt ad=1.32 pd=8.33 as=1.32 ps=8.33 w=8 l=0.5
X135 gnd.t85 commonsourceibias.t66 CSoutput.t31 gnd.t70 sky130_fd_pr__nfet_01v8 ad=1.155 pd=7.33 as=1.155 ps=7.33 w=7 l=1
X136 outputibias.t1 outputibias.t0 gnd.t214 gnd.t213 sky130_fd_pr__nfet_01v8 ad=2.34 pd=12.78 as=2.34 ps=12.78 w=6 l=2
X137 a_n6308_8799.t28 a_n1986_13878.t56 a_n1986_8322.t12 vdd.t37 sky130_fd_pr__pfet_01v8_lvt ad=1.485 pd=9.33 as=1.485 ps=9.33 w=9 l=0.5
X138 a_n1986_8322.t20 a_n1986_13878.t57 vdd.t221 vdd.t220 sky130_fd_pr__pfet_01v8_lvt ad=3.51 pd=18.78 as=1.485 ps=9.33 w=9 l=0.5
X139 vdd.t117 vdd.t114 vdd.t116 vdd.t115 sky130_fd_pr__pfet_01v8_lvt ad=3.51 pd=18.78 as=0 ps=0 w=9 l=0.5
X140 gnd.t84 commonsourceibias.t67 CSoutput.t30 gnd.t83 sky130_fd_pr__nfet_01v8 ad=1.155 pd=7.33 as=1.155 ps=7.33 w=7 l=1
X141 vdd.t201 a_n6308_8799.t66 CSoutput.t102 vdd.t186 sky130_fd_pr__pfet_01v8_lvt ad=3.12 pd=16.78 as=1.32 ps=8.33 w=8 l=0.5
X142 a_n1986_13878.t13 a_n1986_13878.t12 a_n1808_13878.t12 vdd.t38 sky130_fd_pr__pfet_01v8_lvt ad=1.485 pd=9.33 as=1.485 ps=9.33 w=9 l=0.5
X143 a_n2903_n3924.t44 minus.t15 a_n1986_13878.t30 gnd.t210 sky130_fd_pr__nfet_01v8 ad=2.73 pd=14.78 as=1.155 ps=7.33 w=7 l=0.5
X144 a_n2903_n3924.t43 minus.t16 a_n1986_13878.t33 gnd.t236 sky130_fd_pr__nfet_01v8 ad=1.155 pd=7.33 as=1.155 ps=7.33 w=7 l=0.5
X145 a_n6308_8799.t0 plus.t13 a_n2903_n3924.t17 gnd.t6 sky130_fd_pr__nfet_01v8 ad=1.155 pd=7.33 as=1.155 ps=7.33 w=7 l=0.5
X146 CSoutput.t128 a_n1986_8322.t3 sky130_fd_pr__cap_mim_m3_1 l=12 w=12
X147 CSoutput.t103 a_n6308_8799.t67 vdd.t202 vdd.t166 sky130_fd_pr__pfet_01v8_lvt ad=1.32 pd=8.33 as=1.32 ps=8.33 w=8 l=0.5
X148 a_n6308_8799.t16 a_n1986_13878.t58 a_n1986_8322.t11 vdd.t21 sky130_fd_pr__pfet_01v8_lvt ad=1.485 pd=9.33 as=1.485 ps=9.33 w=9 l=0.5
X149 CSoutput.t29 commonsourceibias.t68 gnd.t264 gnd.t73 sky130_fd_pr__nfet_01v8 ad=1.155 pd=7.33 as=1.155 ps=7.33 w=7 l=1
X150 a_n1986_13878.t32 minus.t17 a_n2903_n3924.t42 gnd.t235 sky130_fd_pr__nfet_01v8 ad=1.155 pd=7.33 as=1.155 ps=7.33 w=7 l=0.5
X151 CSoutput.t129 a_n1986_8322.t2 sky130_fd_pr__cap_mim_m3_1 l=12 w=12
X152 a_n1808_13878.t11 a_n1986_13878.t10 a_n1986_13878.t11 vdd.t181 sky130_fd_pr__pfet_01v8_lvt ad=1.485 pd=9.33 as=1.485 ps=9.33 w=9 l=0.5
X153 vdd.t179 a_n1986_13878.t59 a_n1986_8322.t19 vdd.t178 sky130_fd_pr__pfet_01v8_lvt ad=1.485 pd=9.33 as=3.51 ps=18.78 w=9 l=0.5
X154 gnd.t166 gnd.t163 gnd.t165 gnd.t164 sky130_fd_pr__nfet_01v8 ad=2.73 pd=14.78 as=0 ps=0 w=7 l=1
X155 a_n2903_n3924.t0 diffpairibias.t19 gnd.t8 gnd.t7 sky130_fd_pr__nfet_01v8 ad=2.73 pd=14.78 as=2.73 ps=14.78 w=7 l=1
X156 CSoutput.t82 a_n6308_8799.t68 vdd.t168 vdd.t34 sky130_fd_pr__pfet_01v8_lvt ad=1.32 pd=8.33 as=1.32 ps=8.33 w=8 l=0.5
X157 CSoutput.t28 commonsourceibias.t69 gnd.t256 gnd.t18 sky130_fd_pr__nfet_01v8 ad=1.155 pd=7.33 as=1.155 ps=7.33 w=7 l=1
X158 a_n1986_13878.t29 minus.t18 a_n2903_n3924.t41 gnd.t234 sky130_fd_pr__nfet_01v8 ad=1.155 pd=7.33 as=1.155 ps=7.33 w=7 l=0.5
X159 CSoutput.t27 commonsourceibias.t70 gnd.t257 gnd.t56 sky130_fd_pr__nfet_01v8 ad=1.155 pd=7.33 as=1.155 ps=7.33 w=7 l=1
X160 a_n2903_n3924.t29 diffpairibias.t20 gnd.t231 gnd.t230 sky130_fd_pr__nfet_01v8 ad=2.73 pd=14.78 as=2.73 ps=14.78 w=7 l=1
X161 vdd.t169 a_n6308_8799.t69 CSoutput.t83 vdd.t82 sky130_fd_pr__pfet_01v8_lvt ad=3.12 pd=16.78 as=1.32 ps=8.33 w=8 l=0.5
X162 gnd.t249 commonsourceibias.t71 CSoutput.t26 gnd.t87 sky130_fd_pr__nfet_01v8 ad=2.73 pd=14.78 as=1.155 ps=7.33 w=7 l=1
X163 gnd.t162 gnd.t160 minus.t2 gnd.t161 sky130_fd_pr__nfet_01v8 ad=0.165 pd=1.33 as=0.165 ps=1.33 w=1 l=0.5
X164 CSoutput.t25 commonsourceibias.t72 gnd.t281 gnd.t44 sky130_fd_pr__nfet_01v8 ad=1.155 pd=7.33 as=1.155 ps=7.33 w=7 l=1
X165 vdd.t65 a_n6308_8799.t70 CSoutput.t70 vdd.t57 sky130_fd_pr__pfet_01v8_lvt ad=1.32 pd=8.33 as=1.32 ps=8.33 w=8 l=0.5
X166 a_n1986_13878.t35 minus.t19 a_n2903_n3924.t40 gnd.t89 sky130_fd_pr__nfet_01v8 ad=1.155 pd=7.33 as=1.155 ps=7.33 w=7 l=0.5
X167 gnd.t159 gnd.t157 gnd.t158 gnd.t117 sky130_fd_pr__nfet_01v8 ad=2.73 pd=14.78 as=0 ps=0 w=7 l=1
X168 diffpairibias.t9 diffpairibias.t8 gnd.t204 gnd.t203 sky130_fd_pr__nfet_01v8 ad=2.73 pd=14.78 as=2.73 ps=14.78 w=7 l=1
X169 CSoutput.t71 a_n6308_8799.t71 vdd.t67 vdd.t66 sky130_fd_pr__pfet_01v8_lvt ad=1.32 pd=8.33 as=1.32 ps=8.33 w=8 l=0.5
X170 a_n2903_n3924.t16 plus.t14 a_n6308_8799.t3 gnd.t33 sky130_fd_pr__nfet_01v8 ad=1.155 pd=7.33 as=1.155 ps=7.33 w=7 l=0.5
X171 CSoutput.t100 a_n6308_8799.t72 vdd.t199 vdd.t26 sky130_fd_pr__pfet_01v8_lvt ad=1.32 pd=8.33 as=1.32 ps=8.33 w=8 l=0.5
X172 CSoutput.t24 commonsourceibias.t73 gnd.t223 gnd.t222 sky130_fd_pr__nfet_01v8 ad=1.155 pd=7.33 as=2.73 ps=14.78 w=7 l=1
X173 gnd.t207 commonsourceibias.t74 CSoutput.t23 gnd.t206 sky130_fd_pr__nfet_01v8 ad=1.155 pd=7.33 as=1.155 ps=7.33 w=7 l=1
X174 vdd.t113 vdd.t111 vdd.t112 vdd.t94 sky130_fd_pr__pfet_01v8_lvt ad=3.12 pd=16.78 as=0 ps=0 w=8 l=0.5
X175 a_n1808_13878.t5 a_n1986_13878.t60 vdd.t210 vdd.t209 sky130_fd_pr__pfet_01v8_lvt ad=1.485 pd=9.33 as=1.485 ps=9.33 w=9 l=0.5
X176 vdd.t212 a_n1986_13878.t61 a_n1808_13878.t4 vdd.t211 sky130_fd_pr__pfet_01v8_lvt ad=1.485 pd=9.33 as=1.485 ps=9.33 w=9 l=0.5
X177 a_n2903_n3924.t39 minus.t20 a_n1986_13878.t42 gnd.t219 sky130_fd_pr__nfet_01v8 ad=1.155 pd=7.33 as=1.155 ps=7.33 w=7 l=0.5
X178 a_n2903_n3924.t15 plus.t15 a_n6308_8799.t32 gnd.t241 sky130_fd_pr__nfet_01v8 ad=1.155 pd=7.33 as=1.155 ps=7.33 w=7 l=0.5
X179 gnd.t212 commonsourceibias.t22 commonsourceibias.t23 gnd.t2 sky130_fd_pr__nfet_01v8 ad=1.155 pd=7.33 as=1.155 ps=7.33 w=7 l=1
X180 gnd.t40 commonsourceibias.t75 CSoutput.t22 gnd.t24 sky130_fd_pr__nfet_01v8 ad=2.73 pd=14.78 as=1.155 ps=7.33 w=7 l=1
X181 output.t9 CSoutput.t130 vdd.t41 gnd.t79 sky130_fd_pr__nfet_01v8_lvt ad=0.825 pd=5.33 as=0.825 ps=5.33 w=5 l=1
X182 a_n6308_8799.t33 plus.t16 a_n2903_n3924.t14 gnd.t233 sky130_fd_pr__nfet_01v8 ad=1.155 pd=7.33 as=1.155 ps=7.33 w=7 l=0.5
X183 a_n2903_n3924.t38 minus.t21 a_n1986_13878.t41 gnd.t77 sky130_fd_pr__nfet_01v8 ad=1.155 pd=7.33 as=1.155 ps=7.33 w=7 l=0.5
X184 gnd.t255 commonsourceibias.t76 CSoutput.t21 gnd.t70 sky130_fd_pr__nfet_01v8 ad=1.155 pd=7.33 as=1.155 ps=7.33 w=7 l=1
X185 diffpairibias.t7 diffpairibias.t6 gnd.t275 gnd.t274 sky130_fd_pr__nfet_01v8 ad=2.73 pd=14.78 as=2.73 ps=14.78 w=7 l=1
X186 CSoutput.t101 a_n6308_8799.t73 vdd.t200 vdd.t34 sky130_fd_pr__pfet_01v8_lvt ad=1.32 pd=8.33 as=1.32 ps=8.33 w=8 l=0.5
X187 gnd.t71 commonsourceibias.t20 commonsourceibias.t21 gnd.t70 sky130_fd_pr__nfet_01v8 ad=1.155 pd=7.33 as=1.155 ps=7.33 w=7 l=1
X188 output.t8 CSoutput.t131 vdd.t54 gnd.t53 sky130_fd_pr__nfet_01v8_lvt ad=0.825 pd=5.33 as=0.825 ps=5.33 w=5 l=1
X189 vdd.t224 a_n6308_8799.t74 CSoutput.t112 vdd.t82 sky130_fd_pr__pfet_01v8_lvt ad=3.12 pd=16.78 as=1.32 ps=8.33 w=8 l=0.5
X190 CSoutput.t20 commonsourceibias.t77 gnd.t266 gnd.t16 sky130_fd_pr__nfet_01v8 ad=1.155 pd=7.33 as=1.155 ps=7.33 w=7 l=1
X191 gnd.t156 gnd.t154 gnd.t155 gnd.t117 sky130_fd_pr__nfet_01v8 ad=2.73 pd=14.78 as=0 ps=0 w=7 l=1
X192 gnd.t150 gnd.t148 gnd.t149 gnd.t95 sky130_fd_pr__nfet_01v8 ad=2.73 pd=14.78 as=0 ps=0 w=7 l=1
X193 a_n1986_8322.t10 a_n1986_13878.t62 a_n6308_8799.t15 vdd.t175 sky130_fd_pr__pfet_01v8_lvt ad=1.485 pd=9.33 as=1.485 ps=9.33 w=9 l=0.5
X194 CSoutput.t19 commonsourceibias.t78 gnd.t74 gnd.t73 sky130_fd_pr__nfet_01v8 ad=1.155 pd=7.33 as=1.155 ps=7.33 w=7 l=1
X195 vdd.t225 a_n6308_8799.t75 CSoutput.t113 vdd.t213 sky130_fd_pr__pfet_01v8_lvt ad=1.32 pd=8.33 as=1.32 ps=8.33 w=8 l=0.5
X196 CSoutput.t116 a_n6308_8799.t76 vdd.t228 vdd.t6 sky130_fd_pr__pfet_01v8_lvt ad=1.32 pd=8.33 as=1.32 ps=8.33 w=8 l=0.5
X197 vdd.t229 a_n6308_8799.t77 CSoutput.t117 vdd.t57 sky130_fd_pr__pfet_01v8_lvt ad=1.32 pd=8.33 as=1.32 ps=8.33 w=8 l=0.5
X198 vdd.t177 a_n1986_13878.t63 a_n1986_8322.t18 vdd.t176 sky130_fd_pr__pfet_01v8_lvt ad=1.485 pd=9.33 as=3.51 ps=18.78 w=9 l=0.5
X199 plus.t1 gnd.t151 gnd.t153 gnd.t152 sky130_fd_pr__nfet_01v8 ad=0.165 pd=1.33 as=0.165 ps=1.33 w=1 l=0.5
X200 gnd.t147 gnd.t145 minus.t1 gnd.t146 sky130_fd_pr__nfet_01v8 ad=0.39 pd=2.78 as=0.165 ps=1.33 w=1 l=0.5
X201 gnd.t144 gnd.t141 gnd.t143 gnd.t142 sky130_fd_pr__nfet_01v8 ad=2.73 pd=14.78 as=0 ps=0 w=7 l=0.5
X202 gnd.t39 commonsourceibias.t18 commonsourceibias.t19 gnd.t38 sky130_fd_pr__nfet_01v8 ad=1.155 pd=7.33 as=1.155 ps=7.33 w=7 l=1
X203 a_n1808_13878.t3 a_n1986_13878.t64 vdd.t81 vdd.t80 sky130_fd_pr__pfet_01v8_lvt ad=3.51 pd=18.78 as=1.485 ps=9.33 w=9 l=0.5
X204 gnd.t140 gnd.t137 gnd.t139 gnd.t138 sky130_fd_pr__nfet_01v8 ad=2.73 pd=14.78 as=0 ps=0 w=7 l=0.5
X205 gnd.t136 gnd.t133 gnd.t135 gnd.t134 sky130_fd_pr__nfet_01v8 ad=2.73 pd=14.78 as=0 ps=0 w=7 l=1
X206 CSoutput.t18 commonsourceibias.t79 gnd.t260 gnd.t81 sky130_fd_pr__nfet_01v8 ad=1.155 pd=7.33 as=1.155 ps=7.33 w=7 l=1
X207 a_n2903_n3924.t27 diffpairibias.t21 gnd.t202 gnd.t201 sky130_fd_pr__nfet_01v8 ad=2.73 pd=14.78 as=2.73 ps=14.78 w=7 l=1
X208 vdd.t25 a_n6308_8799.t78 CSoutput.t56 vdd.t24 sky130_fd_pr__pfet_01v8_lvt ad=1.32 pd=8.33 as=1.32 ps=8.33 w=8 l=0.5
X209 vdd.t110 vdd.t108 vdd.t109 vdd.t98 sky130_fd_pr__pfet_01v8_lvt ad=3.12 pd=16.78 as=0 ps=0 w=8 l=0.5
X210 CSoutput.t57 a_n6308_8799.t79 vdd.t27 vdd.t26 sky130_fd_pr__pfet_01v8_lvt ad=1.32 pd=8.33 as=1.32 ps=8.33 w=8 l=0.5
X211 CSoutput.t17 commonsourceibias.t80 gnd.t57 gnd.t56 sky130_fd_pr__nfet_01v8 ad=1.155 pd=7.33 as=1.155 ps=7.33 w=7 l=1
X212 output.t7 CSoutput.t132 vdd.t49 gnd.t54 sky130_fd_pr__nfet_01v8_lvt ad=0.825 pd=5.33 as=0.825 ps=5.33 w=5 l=1
X213 CSoutput.t68 a_n6308_8799.t80 vdd.t62 vdd.t60 sky130_fd_pr__pfet_01v8_lvt ad=1.32 pd=8.33 as=1.32 ps=8.33 w=8 l=0.5
X214 CSoutput.t133 a_n1986_8322.t1 sky130_fd_pr__cap_mim_m3_1 l=12 w=12
X215 vdd.t107 vdd.t105 vdd.t106 vdd.t94 sky130_fd_pr__pfet_01v8_lvt ad=3.12 pd=16.78 as=0 ps=0 w=8 l=0.5
X216 CSoutput.t16 commonsourceibias.t81 gnd.t78 gnd.t44 sky130_fd_pr__nfet_01v8 ad=1.155 pd=7.33 as=1.155 ps=7.33 w=7 l=1
X217 gnd.t132 gnd.t129 gnd.t131 gnd.t130 sky130_fd_pr__nfet_01v8_lvt ad=1.95 pd=10.78 as=0 ps=0 w=5 l=1
X218 a_n1986_8322.t9 a_n1986_13878.t65 a_n6308_8799.t9 vdd.t38 sky130_fd_pr__pfet_01v8_lvt ad=1.485 pd=9.33 as=1.485 ps=9.33 w=9 l=0.5
X219 vdd.t208 a_n1986_13878.t66 a_n1986_8322.t17 vdd.t207 sky130_fd_pr__pfet_01v8_lvt ad=1.485 pd=9.33 as=1.485 ps=9.33 w=9 l=0.5
X220 vdd.t64 a_n6308_8799.t81 CSoutput.t69 vdd.t63 sky130_fd_pr__pfet_01v8_lvt ad=1.32 pd=8.33 as=1.32 ps=8.33 w=8 l=0.5
X221 CSoutput.t98 a_n6308_8799.t82 vdd.t197 vdd.t26 sky130_fd_pr__pfet_01v8_lvt ad=1.32 pd=8.33 as=1.32 ps=8.33 w=8 l=0.5
X222 gnd.t268 commonsourceibias.t82 CSoutput.t15 gnd.t38 sky130_fd_pr__nfet_01v8 ad=1.155 pd=7.33 as=1.155 ps=7.33 w=7 l=1
X223 output.t18 outputibias.t9 gnd.t31 gnd.t30 sky130_fd_pr__nfet_01v8 ad=2.34 pd=12.78 as=2.34 ps=12.78 w=6 l=2
X224 CSoutput.t99 a_n6308_8799.t83 vdd.t198 vdd.t4 sky130_fd_pr__pfet_01v8_lvt ad=1.32 pd=8.33 as=3.12 ps=16.78 w=8 l=0.5
X225 a_n2903_n3924.t13 plus.t17 a_n6308_8799.t34 gnd.t239 sky130_fd_pr__nfet_01v8 ad=1.155 pd=7.33 as=1.155 ps=7.33 w=7 l=0.5
X226 gnd.t128 gnd.t126 gnd.t127 gnd.t113 sky130_fd_pr__nfet_01v8 ad=2.73 pd=14.78 as=0 ps=0 w=7 l=1
X227 vdd.t42 CSoutput.t134 output.t6 gnd.t13 sky130_fd_pr__nfet_01v8_lvt ad=0.825 pd=5.33 as=0.825 ps=5.33 w=5 l=1
X228 vdd.t195 a_n6308_8799.t84 CSoutput.t96 vdd.t163 sky130_fd_pr__pfet_01v8_lvt ad=1.32 pd=8.33 as=1.32 ps=8.33 w=8 l=0.5
X229 vdd.t196 a_n6308_8799.t85 CSoutput.t97 vdd.t55 sky130_fd_pr__pfet_01v8_lvt ad=1.32 pd=8.33 as=1.32 ps=8.33 w=8 l=0.5
X230 a_n2903_n3924.t37 minus.t22 a_n1986_13878.t34 gnd.t220 sky130_fd_pr__nfet_01v8 ad=1.155 pd=7.33 as=1.155 ps=7.33 w=7 l=0.5
X231 a_n6308_8799.t17 plus.t18 a_n2903_n3924.t12 gnd.t93 sky130_fd_pr__nfet_01v8 ad=1.155 pd=7.33 as=1.155 ps=7.33 w=7 l=0.5
X232 gnd.t125 gnd.t123 gnd.t124 gnd.t113 sky130_fd_pr__nfet_01v8 ad=2.73 pd=14.78 as=0 ps=0 w=7 l=1
X233 output.t17 outputibias.t10 gnd.t252 gnd.t251 sky130_fd_pr__nfet_01v8 ad=2.34 pd=12.78 as=2.34 ps=12.78 w=6 l=2
X234 diffpairibias.t5 diffpairibias.t4 gnd.t277 gnd.t276 sky130_fd_pr__nfet_01v8 ad=2.73 pd=14.78 as=2.73 ps=14.78 w=7 l=1
X235 vdd.t104 vdd.t101 vdd.t103 vdd.t102 sky130_fd_pr__pfet_01v8_lvt ad=3.51 pd=18.78 as=0 ps=0 w=9 l=0.5
X236 a_n6308_8799.t18 plus.t19 a_n2903_n3924.t11 gnd.t209 sky130_fd_pr__nfet_01v8 ad=1.155 pd=7.33 as=1.155 ps=7.33 w=7 l=0.5
X237 a_n2903_n3924.t36 minus.t23 a_n1986_13878.t27 gnd.t59 sky130_fd_pr__nfet_01v8 ad=1.155 pd=7.33 as=1.155 ps=7.33 w=7 l=0.5
X238 a_n1808_13878.t10 a_n1986_13878.t2 a_n1986_13878.t3 vdd.t16 sky130_fd_pr__pfet_01v8_lvt ad=1.485 pd=9.33 as=1.485 ps=9.33 w=9 l=0.5
X239 gnd.t254 commonsourceibias.t83 CSoutput.t14 gnd.t206 sky130_fd_pr__nfet_01v8 ad=1.155 pd=7.33 as=1.155 ps=7.33 w=7 l=1
X240 CSoutput.t13 commonsourceibias.t84 gnd.t286 gnd.t222 sky130_fd_pr__nfet_01v8 ad=1.155 pd=7.33 as=2.73 ps=14.78 w=7 l=1
X241 a_n1986_8322.t8 a_n1986_13878.t67 a_n6308_8799.t25 vdd.t192 sky130_fd_pr__pfet_01v8_lvt ad=1.485 pd=9.33 as=1.485 ps=9.33 w=9 l=0.5
X242 gnd.t244 commonsourceibias.t85 CSoutput.t12 gnd.t2 sky130_fd_pr__nfet_01v8 ad=1.155 pd=7.33 as=1.155 ps=7.33 w=7 l=1
X243 gnd.t43 commonsourceibias.t16 commonsourceibias.t17 gnd.t24 sky130_fd_pr__nfet_01v8 ad=2.73 pd=14.78 as=1.155 ps=7.33 w=7 l=1
X244 vdd.t165 a_n6308_8799.t86 CSoutput.t80 vdd.t163 sky130_fd_pr__pfet_01v8_lvt ad=1.32 pd=8.33 as=1.32 ps=8.33 w=8 l=0.5
X245 CSoutput.t81 a_n6308_8799.t87 vdd.t167 vdd.t166 sky130_fd_pr__pfet_01v8_lvt ad=1.32 pd=8.33 as=1.32 ps=8.33 w=8 l=0.5
X246 a_n2903_n3924.t10 plus.t20 a_n6308_8799.t30 gnd.t240 sky130_fd_pr__nfet_01v8 ad=1.155 pd=7.33 as=1.155 ps=7.33 w=7 l=0.5
X247 gnd.t108 gnd.t105 gnd.t107 gnd.t106 sky130_fd_pr__nfet_01v8 ad=2.34 pd=12.78 as=0 ps=0 w=6 l=2