* NGSPICE file created from opamp.ext - technology: sky130A

.subckt opamp output vdd plus minus commonsourceibias outputibias diffpairibias gnd CSoutput
Cload output gnd 0.0p
X0 gnd.t405 commonsourceibias.t8 commonsourceibias.t9 gnd.t306 sky130_fd_pr__nfet_01v8 ad=1.155 pd=7.33 as=1.155 ps=7.33 w=7 l=1
X1 gnd.t404 commonsourceibias.t80 CSoutput.t187 gnd.t232 sky130_fd_pr__nfet_01v8 ad=1.155 pd=7.33 as=1.155 ps=7.33 w=7 l=1
X2 gnd.t397 commonsourceibias.t81 CSoutput.t186 gnd.t263 sky130_fd_pr__nfet_01v8 ad=1.155 pd=7.33 as=1.155 ps=7.33 w=7 l=1
X3 CSoutput.t185 commonsourceibias.t82 gnd.t403 gnd.t269 sky130_fd_pr__nfet_01v8 ad=1.155 pd=7.33 as=1.155 ps=7.33 w=7 l=1
X4 commonsourceibias.t7 commonsourceibias.t6 gnd.t401 gnd.t239 sky130_fd_pr__nfet_01v8 ad=1.155 pd=7.33 as=1.155 ps=7.33 w=7 l=1
X5 a_n1986_8322.t12 a_n2848_n452.t48 vdd.t119 vdd.t118 sky130_fd_pr__pfet_01v8_lvt ad=1.485 pd=9.33 as=1.485 ps=9.33 w=9 l=0.5
X6 gnd.t402 commonsourceibias.t83 CSoutput.t184 gnd.t223 sky130_fd_pr__nfet_01v8 ad=1.155 pd=7.33 as=1.155 ps=7.33 w=7 l=1
X7 a_n1808_13878.t11 a_n2848_n452.t18 a_n2848_n452.t19 vdd.t115 sky130_fd_pr__pfet_01v8_lvt ad=1.485 pd=9.33 as=3.51 ps=18.78 w=9 l=0.5
X8 vdd.t24 a_n6972_8799.t36 CSoutput.t12 vdd.t23 sky130_fd_pr__pfet_01v8_lvt ad=1.32 pd=8.33 as=1.32 ps=8.33 w=8 l=0.5
X9 a_n6972_8799.t35 plus.t5 a_n3827_n3924.t40 gnd.t408 sky130_fd_pr__nfet_01v8 ad=1.155 pd=7.33 as=1.155 ps=7.33 w=7 l=0.9
X10 gnd.t400 commonsourceibias.t4 commonsourceibias.t5 gnd.t229 sky130_fd_pr__nfet_01v8 ad=1.155 pd=7.33 as=1.155 ps=7.33 w=7 l=1
X11 a_n3827_n3924.t50 diffpairibias.t20 gnd.t199 gnd.t198 sky130_fd_pr__nfet_01v8 ad=2.73 pd=14.78 as=2.73 ps=14.78 w=7 l=1
X12 CSoutput.t183 commonsourceibias.t84 gnd.t399 gnd.t350 sky130_fd_pr__nfet_01v8 ad=1.155 pd=7.33 as=1.155 ps=7.33 w=7 l=1
X13 a_n3827_n3924.t39 plus.t6 a_n6972_8799.t29 gnd.t156 sky130_fd_pr__nfet_01v8 ad=1.155 pd=7.33 as=1.155 ps=7.33 w=7 l=0.9
X14 a_n2848_n452.t37 a_n2848_n452.t36 a_n1808_13878.t10 vdd.t97 sky130_fd_pr__pfet_01v8_lvt ad=1.485 pd=9.33 as=1.485 ps=9.33 w=9 l=0.5
X15 vdd.t211 vdd.t209 vdd.t210 vdd.t187 sky130_fd_pr__pfet_01v8_lvt ad=3.51 pd=18.78 as=0 ps=0 w=9 l=0.5
X16 CSoutput.t13 a_n6972_8799.t37 vdd.t26 vdd.t25 sky130_fd_pr__pfet_01v8_lvt ad=1.32 pd=8.33 as=1.32 ps=8.33 w=8 l=0.5
X17 a_n1808_13878.t9 a_n2848_n452.t30 a_n2848_n452.t31 vdd.t107 sky130_fd_pr__pfet_01v8_lvt ad=1.485 pd=9.33 as=1.485 ps=9.33 w=9 l=0.5
X18 a_n1808_13878.t19 a_n2848_n452.t49 vdd.t117 vdd.t116 sky130_fd_pr__pfet_01v8_lvt ad=1.485 pd=9.33 as=1.485 ps=9.33 w=9 l=0.5
X19 gnd.t398 commonsourceibias.t2 commonsourceibias.t3 gnd.t206 sky130_fd_pr__nfet_01v8 ad=1.155 pd=7.33 as=1.155 ps=7.33 w=7 l=1
X20 vdd.t251 a_n6972_8799.t38 CSoutput.t204 vdd.t71 sky130_fd_pr__pfet_01v8_lvt ad=1.32 pd=8.33 as=1.32 ps=8.33 w=8 l=0.5
X21 CSoutput.t205 a_n6972_8799.t39 vdd.t252 vdd.t33 sky130_fd_pr__pfet_01v8_lvt ad=1.32 pd=8.33 as=1.32 ps=8.33 w=8 l=0.5
X22 vdd.t208 vdd.t206 vdd.t207 vdd.t141 sky130_fd_pr__pfet_01v8_lvt ad=3.12 pd=16.78 as=0 ps=0 w=8 l=0.5
X23 commonsourceibias.t1 commonsourceibias.t0 gnd.t396 gnd.t257 sky130_fd_pr__nfet_01v8 ad=1.155 pd=7.33 as=1.155 ps=7.33 w=7 l=1
X24 gnd.t395 commonsourceibias.t85 CSoutput.t182 gnd.t299 sky130_fd_pr__nfet_01v8 ad=1.155 pd=7.33 as=1.155 ps=7.33 w=7 l=1
X25 CSoutput.t34 a_n6972_8799.t40 vdd.t58 vdd.t57 sky130_fd_pr__pfet_01v8_lvt ad=1.32 pd=8.33 as=1.32 ps=8.33 w=8 l=0.5
X26 gnd.t122 gnd.t120 gnd.t121 gnd.t49 sky130_fd_pr__nfet_01v8 ad=2.73 pd=14.78 as=0 ps=0 w=7 l=1
X27 a_n2848_n452.t7 minus.t5 a_n3827_n3924.t7 gnd.t136 sky130_fd_pr__nfet_01v8 ad=1.155 pd=7.33 as=1.155 ps=7.33 w=7 l=0.9
X28 a_n1986_8322.t4 a_n2848_n452.t50 a_n6972_8799.t24 vdd.t114 sky130_fd_pr__pfet_01v8_lvt ad=1.485 pd=9.33 as=1.485 ps=9.33 w=9 l=0.5
X29 a_n6972_8799.t3 plus.t7 a_n3827_n3924.t38 gnd.t133 sky130_fd_pr__nfet_01v8 ad=1.155 pd=7.33 as=1.155 ps=7.33 w=7 l=0.9
X30 CSoutput.t181 commonsourceibias.t86 gnd.t394 gnd.t278 sky130_fd_pr__nfet_01v8 ad=1.155 pd=7.33 as=1.155 ps=7.33 w=7 l=1
X31 a_n2848_n452.t38 minus.t6 a_n3827_n3924.t14 gnd.t163 sky130_fd_pr__nfet_01v8 ad=1.155 pd=7.33 as=1.155 ps=7.33 w=7 l=0.9
X32 plus.t4 gnd.t117 gnd.t119 gnd.t118 sky130_fd_pr__nfet_01v8 ad=0.165 pd=1.33 as=0.165 ps=1.33 w=1 l=0.5
X33 CSoutput.t35 a_n6972_8799.t41 vdd.t59 vdd.t16 sky130_fd_pr__pfet_01v8_lvt ad=1.32 pd=8.33 as=1.32 ps=8.33 w=8 l=0.5
X34 gnd.t116 gnd.t113 gnd.t115 gnd.t114 sky130_fd_pr__nfet_01v8 ad=2.34 pd=12.78 as=0 ps=0 w=6 l=2
X35 CSoutput.t180 commonsourceibias.t87 gnd.t393 gnd.t214 sky130_fd_pr__nfet_01v8 ad=1.155 pd=7.33 as=1.155 ps=7.33 w=7 l=1
X36 vdd.t236 a_n6972_8799.t42 CSoutput.t190 vdd.t6 sky130_fd_pr__pfet_01v8_lvt ad=1.32 pd=8.33 as=1.32 ps=8.33 w=8 l=0.5
X37 commonsourceibias.t55 commonsourceibias.t54 gnd.t392 gnd.t304 sky130_fd_pr__nfet_01v8 ad=1.155 pd=7.33 as=1.155 ps=7.33 w=7 l=1
X38 vdd.t121 CSoutput.t216 output.t17 gnd.t142 sky130_fd_pr__nfet_01v8_lvt ad=0.825 pd=5.33 as=0.825 ps=5.33 w=5 l=1
X39 gnd.t391 commonsourceibias.t88 CSoutput.t179 gnd.t225 sky130_fd_pr__nfet_01v8 ad=1.155 pd=7.33 as=1.155 ps=7.33 w=7 l=1
X40 gnd.t112 gnd.t110 gnd.t111 gnd.t39 sky130_fd_pr__nfet_01v8 ad=2.73 pd=14.78 as=0 ps=0 w=7 l=1
X41 CSoutput.t178 commonsourceibias.t89 gnd.t332 gnd.t208 sky130_fd_pr__nfet_01v8 ad=1.155 pd=7.33 as=1.155 ps=7.33 w=7 l=1
X42 CSoutput.t177 commonsourceibias.t90 gnd.t390 gnd.t350 sky130_fd_pr__nfet_01v8 ad=1.155 pd=7.33 as=1.155 ps=7.33 w=7 l=1
X43 vdd.t237 a_n6972_8799.t43 CSoutput.t191 vdd.t227 sky130_fd_pr__pfet_01v8_lvt ad=1.32 pd=8.33 as=1.32 ps=8.33 w=8 l=0.5
X44 gnd.t389 commonsourceibias.t52 commonsourceibias.t53 gnd.t299 sky130_fd_pr__nfet_01v8 ad=1.155 pd=7.33 as=1.155 ps=7.33 w=7 l=1
X45 outputibias.t7 outputibias.t6 gnd.t407 gnd.t406 sky130_fd_pr__nfet_01v8 ad=2.34 pd=12.78 as=2.34 ps=12.78 w=6 l=2
X46 gnd.t388 commonsourceibias.t50 commonsourceibias.t51 gnd.t210 sky130_fd_pr__nfet_01v8 ad=2.73 pd=14.78 as=1.155 ps=7.33 w=7 l=1
X47 CSoutput.t176 commonsourceibias.t91 gnd.t387 gnd.t309 sky130_fd_pr__nfet_01v8 ad=1.155 pd=7.33 as=1.155 ps=7.33 w=7 l=1
X48 CSoutput.t64 a_n6972_8799.t44 vdd.t230 vdd.t2 sky130_fd_pr__pfet_01v8_lvt ad=1.32 pd=8.33 as=1.32 ps=8.33 w=8 l=0.5
X49 a_n3827_n3924.t37 plus.t8 a_n6972_8799.t10 gnd.t123 sky130_fd_pr__nfet_01v8 ad=1.155 pd=7.33 as=1.155 ps=7.33 w=7 l=0.9
X50 a_n6972_8799.t23 a_n2848_n452.t51 a_n1986_8322.t15 vdd.t115 sky130_fd_pr__pfet_01v8_lvt ad=1.485 pd=9.33 as=3.51 ps=18.78 w=9 l=0.5
X51 vdd.t231 a_n6972_8799.t45 CSoutput.t65 vdd.t30 sky130_fd_pr__pfet_01v8_lvt ad=1.32 pd=8.33 as=1.32 ps=8.33 w=8 l=0.5
X52 a_n3827_n3924.t49 diffpairibias.t21 gnd.t197 gnd.t196 sky130_fd_pr__nfet_01v8 ad=2.73 pd=14.78 as=2.73 ps=14.78 w=7 l=1
X53 CSoutput.t28 a_n6972_8799.t46 vdd.t50 vdd.t49 sky130_fd_pr__pfet_01v8_lvt ad=1.32 pd=8.33 as=3.12 ps=16.78 w=8 l=0.5
X54 commonsourceibias.t49 commonsourceibias.t48 gnd.t386 gnd.t212 sky130_fd_pr__nfet_01v8 ad=1.155 pd=7.33 as=1.155 ps=7.33 w=7 l=1
X55 a_n3827_n3924.t3 minus.t7 a_n2848_n452.t3 gnd.t129 sky130_fd_pr__nfet_01v8 ad=1.155 pd=7.33 as=1.155 ps=7.33 w=7 l=0.9
X56 CSoutput.t175 commonsourceibias.t92 gnd.t333 gnd.t309 sky130_fd_pr__nfet_01v8 ad=1.155 pd=7.33 as=1.155 ps=7.33 w=7 l=1
X57 vdd.t205 vdd.t203 vdd.t204 vdd.t137 sky130_fd_pr__pfet_01v8_lvt ad=3.12 pd=16.78 as=0 ps=0 w=8 l=0.5
X58 CSoutput.t29 a_n6972_8799.t47 vdd.t51 vdd.t25 sky130_fd_pr__pfet_01v8_lvt ad=1.32 pd=8.33 as=1.32 ps=8.33 w=8 l=0.5
X59 gnd.t385 commonsourceibias.t46 commonsourceibias.t47 gnd.t287 sky130_fd_pr__nfet_01v8 ad=1.155 pd=7.33 as=1.155 ps=7.33 w=7 l=1
X60 CSoutput.t174 commonsourceibias.t93 gnd.t384 gnd.t227 sky130_fd_pr__nfet_01v8 ad=1.155 pd=7.33 as=2.73 ps=14.78 w=7 l=1
X61 CSoutput.t214 a_n6972_8799.t48 vdd.t262 vdd.t222 sky130_fd_pr__pfet_01v8_lvt ad=1.32 pd=8.33 as=1.32 ps=8.33 w=8 l=0.5
X62 vdd.t202 vdd.t200 vdd.t201 vdd.t141 sky130_fd_pr__pfet_01v8_lvt ad=3.12 pd=16.78 as=0 ps=0 w=8 l=0.5
X63 gnd.t109 gnd.t107 gnd.t108 gnd.t35 sky130_fd_pr__nfet_01v8 ad=2.73 pd=14.78 as=0 ps=0 w=7 l=0.9
X64 CSoutput.t215 a_n6972_8799.t49 vdd.t263 vdd.t57 sky130_fd_pr__pfet_01v8_lvt ad=1.32 pd=8.33 as=1.32 ps=8.33 w=8 l=0.5
X65 a_n3827_n3924.t36 plus.t9 a_n6972_8799.t5 gnd.t135 sky130_fd_pr__nfet_01v8 ad=1.155 pd=7.33 as=1.155 ps=7.33 w=7 l=0.9
X66 CSoutput.t173 commonsourceibias.t94 gnd.t383 gnd.t241 sky130_fd_pr__nfet_01v8 ad=1.155 pd=7.33 as=2.73 ps=14.78 w=7 l=1
X67 gnd.t382 commonsourceibias.t95 CSoutput.t172 gnd.t263 sky130_fd_pr__nfet_01v8 ad=1.155 pd=7.33 as=1.155 ps=7.33 w=7 l=1
X68 diffpairibias.t19 diffpairibias.t18 gnd.t178 gnd.t177 sky130_fd_pr__nfet_01v8 ad=2.73 pd=14.78 as=2.73 ps=14.78 w=7 l=1
X69 CSoutput.t171 commonsourceibias.t96 gnd.t381 gnd.t261 sky130_fd_pr__nfet_01v8 ad=1.155 pd=7.33 as=1.155 ps=7.33 w=7 l=1
X70 a_n3827_n3924.t35 plus.t10 a_n6972_8799.t25 gnd.t162 sky130_fd_pr__nfet_01v8 ad=1.155 pd=7.33 as=1.155 ps=7.33 w=7 l=0.9
X71 a_n1808_13878.t8 a_n2848_n452.t24 a_n2848_n452.t25 vdd.t79 sky130_fd_pr__pfet_01v8_lvt ad=1.485 pd=9.33 as=3.51 ps=18.78 w=9 l=0.5
X72 vdd.t43 a_n6972_8799.t50 CSoutput.t24 vdd.t30 sky130_fd_pr__pfet_01v8_lvt ad=1.32 pd=8.33 as=1.32 ps=8.33 w=8 l=0.5
X73 a_n3827_n3924.t8 minus.t8 a_n2848_n452.t8 gnd.t141 sky130_fd_pr__nfet_01v8 ad=2.73 pd=14.78 as=1.155 ps=7.33 w=7 l=0.9
X74 CSoutput.t25 a_n6972_8799.t51 vdd.t45 vdd.t44 sky130_fd_pr__pfet_01v8_lvt ad=1.32 pd=8.33 as=1.32 ps=8.33 w=8 l=0.5
X75 a_n2848_n452.t21 a_n2848_n452.t20 a_n1808_13878.t7 vdd.t89 sky130_fd_pr__pfet_01v8_lvt ad=1.485 pd=9.33 as=1.485 ps=9.33 w=9 l=0.5
X76 vdd.t134 CSoutput.t217 output.t16 gnd.t143 sky130_fd_pr__nfet_01v8_lvt ad=0.825 pd=5.33 as=0.825 ps=5.33 w=5 l=1
X77 CSoutput.t170 commonsourceibias.t97 gnd.t380 gnd.t319 sky130_fd_pr__nfet_01v8 ad=1.155 pd=7.33 as=1.155 ps=7.33 w=7 l=1
X78 CSoutput.t169 commonsourceibias.t98 gnd.t379 gnd.t290 sky130_fd_pr__nfet_01v8 ad=1.155 pd=7.33 as=1.155 ps=7.33 w=7 l=1
X79 CSoutput.t8 a_n6972_8799.t52 vdd.t17 vdd.t16 sky130_fd_pr__pfet_01v8_lvt ad=1.32 pd=8.33 as=1.32 ps=8.33 w=8 l=0.5
X80 vdd.t199 vdd.t197 vdd.t198 vdd.t172 sky130_fd_pr__pfet_01v8_lvt ad=3.51 pd=18.78 as=0 ps=0 w=9 l=0.5
X81 commonsourceibias.t45 commonsourceibias.t44 gnd.t378 gnd.t269 sky130_fd_pr__nfet_01v8 ad=1.155 pd=7.33 as=1.155 ps=7.33 w=7 l=1
X82 gnd.t106 gnd.t104 gnd.t105 gnd.t14 sky130_fd_pr__nfet_01v8 ad=2.73 pd=14.78 as=0 ps=0 w=7 l=1
X83 vdd.t18 a_n6972_8799.t53 CSoutput.t9 vdd.t6 sky130_fd_pr__pfet_01v8_lvt ad=1.32 pd=8.33 as=1.32 ps=8.33 w=8 l=0.5
X84 CSoutput.t168 commonsourceibias.t99 gnd.t377 gnd.t350 sky130_fd_pr__nfet_01v8 ad=1.155 pd=7.33 as=1.155 ps=7.33 w=7 l=1
X85 gnd.t103 gnd.t100 gnd.t102 gnd.t101 sky130_fd_pr__nfet_01v8_lvt ad=1.95 pd=10.78 as=0 ps=0 w=5 l=1
X86 diffpairibias.t17 diffpairibias.t16 gnd.t201 gnd.t200 sky130_fd_pr__nfet_01v8 ad=2.73 pd=14.78 as=2.73 ps=14.78 w=7 l=1
X87 gnd.t99 gnd.t97 gnd.t98 gnd.t14 sky130_fd_pr__nfet_01v8 ad=2.73 pd=14.78 as=0 ps=0 w=7 l=1
X88 CSoutput.t6 a_n6972_8799.t54 vdd.t13 vdd.t12 sky130_fd_pr__pfet_01v8_lvt ad=1.32 pd=8.33 as=1.32 ps=8.33 w=8 l=0.5
X89 CSoutput.t167 commonsourceibias.t100 gnd.t376 gnd.t241 sky130_fd_pr__nfet_01v8 ad=1.155 pd=7.33 as=2.73 ps=14.78 w=7 l=1
X90 CSoutput.t166 commonsourceibias.t101 gnd.t375 gnd.t290 sky130_fd_pr__nfet_01v8 ad=1.155 pd=7.33 as=1.155 ps=7.33 w=7 l=1
X91 vdd.t15 a_n6972_8799.t55 CSoutput.t7 vdd.t14 sky130_fd_pr__pfet_01v8_lvt ad=1.32 pd=8.33 as=1.32 ps=8.33 w=8 l=0.5
X92 gnd.t96 gnd.t94 gnd.t95 gnd.t53 sky130_fd_pr__nfet_01v8 ad=2.73 pd=14.78 as=0 ps=0 w=7 l=1
X93 vdd.t31 a_n6972_8799.t56 CSoutput.t16 vdd.t30 sky130_fd_pr__pfet_01v8_lvt ad=1.32 pd=8.33 as=1.32 ps=8.33 w=8 l=0.5
X94 vdd.t32 a_n6972_8799.t57 CSoutput.t17 vdd.t19 sky130_fd_pr__pfet_01v8_lvt ad=1.32 pd=8.33 as=1.32 ps=8.33 w=8 l=0.5
X95 CSoutput.t40 a_n6972_8799.t58 vdd.t66 vdd.t49 sky130_fd_pr__pfet_01v8_lvt ad=1.32 pd=8.33 as=3.12 ps=16.78 w=8 l=0.5
X96 CSoutput.t41 a_n6972_8799.t59 vdd.t67 vdd.t21 sky130_fd_pr__pfet_01v8_lvt ad=1.32 pd=8.33 as=3.12 ps=16.78 w=8 l=0.5
X97 a_n3827_n3924.t54 minus.t9 a_n2848_n452.t44 gnd.t171 sky130_fd_pr__nfet_01v8 ad=1.155 pd=7.33 as=1.155 ps=7.33 w=7 l=0.9
X98 a_n3827_n3924.t34 plus.t11 a_n6972_8799.t12 gnd.t161 sky130_fd_pr__nfet_01v8 ad=2.73 pd=14.78 as=1.155 ps=7.33 w=7 l=0.9
X99 gnd.t369 commonsourceibias.t102 CSoutput.t165 gnd.t265 sky130_fd_pr__nfet_01v8 ad=1.155 pd=7.33 as=1.155 ps=7.33 w=7 l=1
X100 CSoutput.t164 commonsourceibias.t103 gnd.t374 gnd.t285 sky130_fd_pr__nfet_01v8 ad=1.155 pd=7.33 as=1.155 ps=7.33 w=7 l=1
X101 a_n6972_8799.t32 plus.t12 a_n3827_n3924.t33 gnd.t132 sky130_fd_pr__nfet_01v8 ad=1.155 pd=7.33 as=1.155 ps=7.33 w=7 l=0.9
X102 gnd.t373 commonsourceibias.t104 CSoutput.t163 gnd.t243 sky130_fd_pr__nfet_01v8 ad=2.73 pd=14.78 as=1.155 ps=7.33 w=7 l=1
X103 vdd.t73 a_n6972_8799.t60 CSoutput.t46 vdd.t35 sky130_fd_pr__pfet_01v8_lvt ad=1.32 pd=8.33 as=1.32 ps=8.33 w=8 l=0.5
X104 gnd.t93 gnd.t91 gnd.t92 gnd.t49 sky130_fd_pr__nfet_01v8 ad=2.73 pd=14.78 as=0 ps=0 w=7 l=1
X105 CSoutput.t47 a_n6972_8799.t61 vdd.t75 vdd.t74 sky130_fd_pr__pfet_01v8_lvt ad=1.32 pd=8.33 as=1.32 ps=8.33 w=8 l=0.5
X106 output.t1 outputibias.t8 gnd.t140 gnd.t139 sky130_fd_pr__nfet_01v8 ad=2.34 pd=12.78 as=2.34 ps=12.78 w=6 l=2
X107 a_n3827_n3924.t48 diffpairibias.t22 gnd.t195 gnd.t194 sky130_fd_pr__nfet_01v8 ad=2.73 pd=14.78 as=2.73 ps=14.78 w=7 l=1
X108 CSoutput.t188 a_n6972_8799.t62 vdd.t234 vdd.t222 sky130_fd_pr__pfet_01v8_lvt ad=1.32 pd=8.33 as=1.32 ps=8.33 w=8 l=0.5
X109 CSoutput.t189 a_n6972_8799.t63 vdd.t235 vdd.t74 sky130_fd_pr__pfet_01v8_lvt ad=1.32 pd=8.33 as=1.32 ps=8.33 w=8 l=0.5
X110 CSoutput.t162 commonsourceibias.t105 gnd.t372 gnd.t219 sky130_fd_pr__nfet_01v8 ad=1.155 pd=7.33 as=1.155 ps=7.33 w=7 l=1
X111 a_n3827_n3924.t32 plus.t13 a_n6972_8799.t30 gnd.t179 sky130_fd_pr__nfet_01v8 ad=1.155 pd=7.33 as=1.155 ps=7.33 w=7 l=0.9
X112 vdd.t9 a_n6972_8799.t64 CSoutput.t4 vdd.t8 sky130_fd_pr__pfet_01v8_lvt ad=1.32 pd=8.33 as=1.32 ps=8.33 w=8 l=0.5
X113 gnd.t371 commonsourceibias.t106 CSoutput.t161 gnd.t237 sky130_fd_pr__nfet_01v8 ad=1.155 pd=7.33 as=1.155 ps=7.33 w=7 l=1
X114 output.t15 CSoutput.t218 vdd.t123 gnd.t144 sky130_fd_pr__nfet_01v8_lvt ad=0.825 pd=5.33 as=0.825 ps=5.33 w=5 l=1
X115 commonsourceibias.t61 commonsourceibias.t60 gnd.t368 gnd.t208 sky130_fd_pr__nfet_01v8 ad=1.155 pd=7.33 as=1.155 ps=7.33 w=7 l=1
X116 gnd.t370 commonsourceibias.t107 CSoutput.t160 gnd.t259 sky130_fd_pr__nfet_01v8 ad=1.155 pd=7.33 as=1.155 ps=7.33 w=7 l=1
X117 CSoutput.t159 commonsourceibias.t108 gnd.t367 gnd.t239 sky130_fd_pr__nfet_01v8 ad=1.155 pd=7.33 as=1.155 ps=7.33 w=7 l=1
X118 a_n2848_n452.t17 a_n2848_n452.t16 a_n1808_13878.t6 vdd.t114 sky130_fd_pr__pfet_01v8_lvt ad=1.485 pd=9.33 as=1.485 ps=9.33 w=9 l=0.5
X119 CSoutput.t219 a_n1986_8322.t20 sky130_fd_pr__cap_mim_m3_1 l=12 w=12
X120 gnd.t366 commonsourceibias.t58 commonsourceibias.t59 gnd.t245 sky130_fd_pr__nfet_01v8 ad=1.155 pd=7.33 as=1.155 ps=7.33 w=7 l=1
X121 vdd.t11 a_n6972_8799.t65 CSoutput.t5 vdd.t10 sky130_fd_pr__pfet_01v8_lvt ad=1.32 pd=8.33 as=1.32 ps=8.33 w=8 l=0.5
X122 vdd.t228 a_n6972_8799.t66 CSoutput.t62 vdd.t227 sky130_fd_pr__pfet_01v8_lvt ad=1.32 pd=8.33 as=1.32 ps=8.33 w=8 l=0.5
X123 a_n6972_8799.t22 a_n2848_n452.t52 a_n1986_8322.t14 vdd.t106 sky130_fd_pr__pfet_01v8_lvt ad=1.485 pd=9.33 as=1.485 ps=9.33 w=9 l=0.5
X124 a_n2848_n452.t29 a_n2848_n452.t28 a_n1808_13878.t5 vdd.t76 sky130_fd_pr__pfet_01v8_lvt ad=3.51 pd=18.78 as=1.485 ps=9.33 w=9 l=0.5
X125 CSoutput.t158 commonsourceibias.t109 gnd.t365 gnd.t309 sky130_fd_pr__nfet_01v8 ad=1.155 pd=7.33 as=1.155 ps=7.33 w=7 l=1
X126 a_n2848_n452.t13 minus.t10 a_n3827_n3924.t13 gnd.t158 sky130_fd_pr__nfet_01v8 ad=1.155 pd=7.33 as=2.73 ps=14.78 w=7 l=0.9
X127 vdd.t229 a_n6972_8799.t67 CSoutput.t63 vdd.t8 sky130_fd_pr__pfet_01v8_lvt ad=1.32 pd=8.33 as=1.32 ps=8.33 w=8 l=0.5
X128 diffpairibias.t15 diffpairibias.t14 gnd.t205 gnd.t204 sky130_fd_pr__nfet_01v8 ad=2.73 pd=14.78 as=2.73 ps=14.78 w=7 l=1
X129 vdd.t260 a_n6972_8799.t68 CSoutput.t212 vdd.t254 sky130_fd_pr__pfet_01v8_lvt ad=1.32 pd=8.33 as=1.32 ps=8.33 w=8 l=0.5
X130 gnd.t348 commonsourceibias.t110 CSoutput.t157 gnd.t250 sky130_fd_pr__nfet_01v8 ad=1.155 pd=7.33 as=1.155 ps=7.33 w=7 l=1
X131 CSoutput.t213 a_n6972_8799.t69 vdd.t261 vdd.t63 sky130_fd_pr__pfet_01v8_lvt ad=1.32 pd=8.33 as=1.32 ps=8.33 w=8 l=0.5
X132 gnd.t364 commonsourceibias.t56 commonsourceibias.t57 gnd.t234 sky130_fd_pr__nfet_01v8 ad=1.155 pd=7.33 as=1.155 ps=7.33 w=7 l=1
X133 CSoutput.t156 commonsourceibias.t111 gnd.t363 gnd.t253 sky130_fd_pr__nfet_01v8 ad=1.155 pd=7.33 as=1.155 ps=7.33 w=7 l=1
X134 vdd.t20 a_n6972_8799.t70 CSoutput.t10 vdd.t19 sky130_fd_pr__pfet_01v8_lvt ad=1.32 pd=8.33 as=1.32 ps=8.33 w=8 l=0.5
X135 CSoutput.t155 commonsourceibias.t112 gnd.t362 gnd.t304 sky130_fd_pr__nfet_01v8 ad=1.155 pd=7.33 as=1.155 ps=7.33 w=7 l=1
X136 vdd.t196 vdd.t194 vdd.t195 vdd.t180 sky130_fd_pr__pfet_01v8_lvt ad=3.51 pd=18.78 as=0 ps=0 w=9 l=0.5
X137 a_n3827_n3924.t47 diffpairibias.t23 gnd.t193 gnd.t192 sky130_fd_pr__nfet_01v8 ad=2.73 pd=14.78 as=2.73 ps=14.78 w=7 l=1
X138 CSoutput.t11 a_n6972_8799.t71 vdd.t22 vdd.t21 sky130_fd_pr__pfet_01v8_lvt ad=1.32 pd=8.33 as=3.12 ps=16.78 w=8 l=0.5
X139 gnd.t361 commonsourceibias.t113 CSoutput.t154 gnd.t306 sky130_fd_pr__nfet_01v8 ad=1.155 pd=7.33 as=1.155 ps=7.33 w=7 l=1
X140 vdd.t193 vdd.t190 vdd.t192 vdd.t191 sky130_fd_pr__pfet_01v8_lvt ad=3.51 pd=18.78 as=0 ps=0 w=9 l=0.5
X141 output.t14 CSoutput.t220 vdd.t124 gnd.t412 sky130_fd_pr__nfet_01v8_lvt ad=0.825 pd=5.33 as=0.825 ps=5.33 w=5 l=1
X142 gnd.t90 gnd.t88 gnd.t89 gnd.t31 sky130_fd_pr__nfet_01v8 ad=2.73 pd=14.78 as=0 ps=0 w=7 l=0.9
X143 gnd.t87 gnd.t85 minus.t4 gnd.t86 sky130_fd_pr__nfet_01v8 ad=0.39 pd=2.78 as=0.165 ps=1.33 w=1 l=0.5
X144 vdd.t189 vdd.t186 vdd.t188 vdd.t187 sky130_fd_pr__pfet_01v8_lvt ad=3.51 pd=18.78 as=0 ps=0 w=9 l=0.5
X145 commonsourceibias.t63 commonsourceibias.t62 gnd.t349 gnd.t227 sky130_fd_pr__nfet_01v8 ad=1.155 pd=7.33 as=2.73 ps=14.78 w=7 l=1
X146 vdd.t185 vdd.t183 vdd.t184 vdd.t176 sky130_fd_pr__pfet_01v8_lvt ad=3.51 pd=18.78 as=0 ps=0 w=9 l=0.5
X147 gnd.t360 commonsourceibias.t114 CSoutput.t153 gnd.t276 sky130_fd_pr__nfet_01v8 ad=1.155 pd=7.33 as=1.155 ps=7.33 w=7 l=1
X148 commonsourceibias.t73 commonsourceibias.t72 gnd.t359 gnd.t214 sky130_fd_pr__nfet_01v8 ad=1.155 pd=7.33 as=1.155 ps=7.33 w=7 l=1
X149 vdd.t113 a_n2848_n452.t53 a_n1986_8322.t11 vdd.t112 sky130_fd_pr__pfet_01v8_lvt ad=1.485 pd=9.33 as=1.485 ps=9.33 w=9 l=0.5
X150 a_n1986_8322.t10 a_n2848_n452.t54 vdd.t111 vdd.t110 sky130_fd_pr__pfet_01v8_lvt ad=1.485 pd=9.33 as=1.485 ps=9.33 w=9 l=0.5
X151 CSoutput.t200 a_n6972_8799.t72 vdd.t247 vdd.t74 sky130_fd_pr__pfet_01v8_lvt ad=1.32 pd=8.33 as=1.32 ps=8.33 w=8 l=0.5
X152 gnd.t358 commonsourceibias.t70 commonsourceibias.t71 gnd.t225 sky130_fd_pr__nfet_01v8 ad=1.155 pd=7.33 as=1.155 ps=7.33 w=7 l=1
X153 CSoutput.t152 commonsourceibias.t115 gnd.t357 gnd.t261 sky130_fd_pr__nfet_01v8 ad=1.155 pd=7.33 as=1.155 ps=7.33 w=7 l=1
X154 gnd.t356 commonsourceibias.t116 CSoutput.t151 gnd.t223 sky130_fd_pr__nfet_01v8 ad=1.155 pd=7.33 as=1.155 ps=7.33 w=7 l=1
X155 output.t13 CSoutput.t221 vdd.t126 gnd.t413 sky130_fd_pr__nfet_01v8_lvt ad=0.825 pd=5.33 as=0.825 ps=5.33 w=5 l=1
X156 vdd.t122 CSoutput.t222 output.t12 gnd.t147 sky130_fd_pr__nfet_01v8_lvt ad=0.825 pd=5.33 as=0.825 ps=5.33 w=5 l=1
X157 vdd.t248 a_n6972_8799.t73 CSoutput.t201 vdd.t8 sky130_fd_pr__pfet_01v8_lvt ad=1.32 pd=8.33 as=1.32 ps=8.33 w=8 l=0.5
X158 gnd.t84 gnd.t82 plus.t3 gnd.t83 sky130_fd_pr__nfet_01v8 ad=0.39 pd=2.78 as=0.165 ps=1.33 w=1 l=0.5
X159 CSoutput.t150 commonsourceibias.t117 gnd.t355 gnd.t285 sky130_fd_pr__nfet_01v8 ad=1.155 pd=7.33 as=1.155 ps=7.33 w=7 l=1
X160 vdd.t109 a_n2848_n452.t55 a_n1808_13878.t18 vdd.t108 sky130_fd_pr__pfet_01v8_lvt ad=1.485 pd=9.33 as=1.485 ps=9.33 w=9 l=0.5
X161 a_n6972_8799.t4 plus.t14 a_n3827_n3924.t31 gnd.t134 sky130_fd_pr__nfet_01v8 ad=1.155 pd=7.33 as=2.73 ps=14.78 w=7 l=0.9
X162 commonsourceibias.t69 commonsourceibias.t68 gnd.t354 gnd.t216 sky130_fd_pr__nfet_01v8 ad=1.155 pd=7.33 as=1.155 ps=7.33 w=7 l=1
X163 a_n2848_n452.t40 minus.t11 a_n3827_n3924.t16 gnd.t146 sky130_fd_pr__nfet_01v8 ad=1.155 pd=7.33 as=1.155 ps=7.33 w=7 l=0.9
X164 gnd.t353 commonsourceibias.t118 CSoutput.t149 gnd.t248 sky130_fd_pr__nfet_01v8 ad=1.155 pd=7.33 as=1.155 ps=7.33 w=7 l=1
X165 vdd.t182 vdd.t179 vdd.t181 vdd.t180 sky130_fd_pr__pfet_01v8_lvt ad=3.51 pd=18.78 as=0 ps=0 w=9 l=0.5
X166 a_n6972_8799.t7 plus.t15 a_n3827_n3924.t30 gnd.t145 sky130_fd_pr__nfet_01v8 ad=1.155 pd=7.33 as=1.155 ps=7.33 w=7 l=0.9
X167 diffpairibias.t13 diffpairibias.t12 gnd.t203 gnd.t202 sky130_fd_pr__nfet_01v8 ad=2.73 pd=14.78 as=2.73 ps=14.78 w=7 l=1
X168 CSoutput.t223 a_n1986_8322.t20 sky130_fd_pr__cap_mim_m3_1 l=12 w=12
X169 a_n2848_n452.t1 minus.t12 a_n3827_n3924.t1 gnd.t127 sky130_fd_pr__nfet_01v8 ad=1.155 pd=7.33 as=1.155 ps=7.33 w=7 l=0.9
X170 vdd.t178 vdd.t175 vdd.t177 vdd.t176 sky130_fd_pr__pfet_01v8_lvt ad=3.51 pd=18.78 as=0 ps=0 w=9 l=0.5
X171 vdd.t258 a_n6972_8799.t74 CSoutput.t210 vdd.t227 sky130_fd_pr__pfet_01v8_lvt ad=1.32 pd=8.33 as=1.32 ps=8.33 w=8 l=0.5
X172 gnd.t352 commonsourceibias.t66 commonsourceibias.t67 gnd.t223 sky130_fd_pr__nfet_01v8 ad=1.155 pd=7.33 as=1.155 ps=7.33 w=7 l=1
X173 commonsourceibias.t65 commonsourceibias.t64 gnd.t351 gnd.t350 sky130_fd_pr__nfet_01v8 ad=1.155 pd=7.33 as=1.155 ps=7.33 w=7 l=1
X174 vdd.t174 vdd.t171 vdd.t173 vdd.t172 sky130_fd_pr__pfet_01v8_lvt ad=3.51 pd=18.78 as=0 ps=0 w=9 l=0.5
X175 a_n6972_8799.t21 a_n2848_n452.t56 a_n1986_8322.t1 vdd.t81 sky130_fd_pr__pfet_01v8_lvt ad=1.485 pd=9.33 as=1.485 ps=9.33 w=9 l=0.5
X176 a_n1986_8322.t9 a_n2848_n452.t57 vdd.t105 vdd.t104 sky130_fd_pr__pfet_01v8_lvt ad=3.51 pd=18.78 as=1.485 ps=9.33 w=9 l=0.5
X177 gnd.t347 commonsourceibias.t119 CSoutput.t148 gnd.t255 sky130_fd_pr__nfet_01v8 ad=1.155 pd=7.33 as=1.155 ps=7.33 w=7 l=1
X178 gnd.t78 gnd.t76 gnd.t77 gnd.t53 sky130_fd_pr__nfet_01v8 ad=2.73 pd=14.78 as=0 ps=0 w=7 l=1
X179 vdd.t259 a_n6972_8799.t75 CSoutput.t211 vdd.t254 sky130_fd_pr__pfet_01v8_lvt ad=1.32 pd=8.33 as=1.32 ps=8.33 w=8 l=0.5
X180 a_n2848_n452.t23 a_n2848_n452.t22 a_n1808_13878.t4 vdd.t92 sky130_fd_pr__pfet_01v8_lvt ad=1.485 pd=9.33 as=1.485 ps=9.33 w=9 l=0.5
X181 gnd.t346 commonsourceibias.t120 CSoutput.t147 gnd.t234 sky130_fd_pr__nfet_01v8 ad=1.155 pd=7.33 as=1.155 ps=7.33 w=7 l=1
X182 a_n3827_n3924.t2 minus.t13 a_n2848_n452.t2 gnd.t128 sky130_fd_pr__nfet_01v8 ad=1.155 pd=7.33 as=1.155 ps=7.33 w=7 l=0.9
X183 a_n6972_8799.t20 a_n2848_n452.t58 a_n1986_8322.t0 vdd.t107 sky130_fd_pr__pfet_01v8_lvt ad=1.485 pd=9.33 as=1.485 ps=9.33 w=9 l=0.5
X184 CSoutput.t54 a_n6972_8799.t76 vdd.t218 vdd.t63 sky130_fd_pr__pfet_01v8_lvt ad=1.32 pd=8.33 as=1.32 ps=8.33 w=8 l=0.5
X185 output.t0 outputibias.t9 gnd.t138 gnd.t137 sky130_fd_pr__nfet_01v8 ad=2.34 pd=12.78 as=2.34 ps=12.78 w=6 l=2
X186 a_n1808_13878.t3 a_n2848_n452.t14 a_n2848_n452.t15 vdd.t106 sky130_fd_pr__pfet_01v8_lvt ad=1.485 pd=9.33 as=1.485 ps=9.33 w=9 l=0.5
X187 output.t11 CSoutput.t224 vdd.t127 gnd.t148 sky130_fd_pr__nfet_01v8_lvt ad=0.825 pd=5.33 as=0.825 ps=5.33 w=5 l=1
X188 a_n2848_n452.t43 minus.t14 a_n3827_n3924.t53 gnd.t408 sky130_fd_pr__nfet_01v8 ad=1.155 pd=7.33 as=1.155 ps=7.33 w=7 l=0.9
X189 a_n3827_n3924.t29 plus.t16 a_n6972_8799.t11 gnd.t157 sky130_fd_pr__nfet_01v8 ad=1.155 pd=7.33 as=1.155 ps=7.33 w=7 l=0.9
X190 gnd.t81 gnd.t79 gnd.t80 gnd.t49 sky130_fd_pr__nfet_01v8 ad=2.73 pd=14.78 as=0 ps=0 w=7 l=1
X191 CSoutput.t146 commonsourceibias.t121 gnd.t345 gnd.t219 sky130_fd_pr__nfet_01v8 ad=1.155 pd=7.33 as=1.155 ps=7.33 w=7 l=1
X192 CSoutput.t55 a_n6972_8799.t77 vdd.t219 vdd.t12 sky130_fd_pr__pfet_01v8_lvt ad=1.32 pd=8.33 as=1.32 ps=8.33 w=8 l=0.5
X193 gnd.t344 commonsourceibias.t122 CSoutput.t145 gnd.t265 sky130_fd_pr__nfet_01v8 ad=1.155 pd=7.33 as=1.155 ps=7.33 w=7 l=1
X194 commonsourceibias.t79 commonsourceibias.t78 gnd.t343 gnd.t278 sky130_fd_pr__nfet_01v8 ad=1.155 pd=7.33 as=1.155 ps=7.33 w=7 l=1
X195 gnd.t342 commonsourceibias.t123 CSoutput.t144 gnd.t263 sky130_fd_pr__nfet_01v8 ad=1.155 pd=7.33 as=1.155 ps=7.33 w=7 l=1
X196 vdd.t103 a_n2848_n452.t59 a_n1986_8322.t8 vdd.t102 sky130_fd_pr__pfet_01v8_lvt ad=1.485 pd=9.33 as=3.51 ps=18.78 w=9 l=0.5
X197 gnd.t341 commonsourceibias.t124 CSoutput.t143 gnd.t259 sky130_fd_pr__nfet_01v8 ad=1.155 pd=7.33 as=1.155 ps=7.33 w=7 l=1
X198 vdd.t245 a_n6972_8799.t78 CSoutput.t198 vdd.t71 sky130_fd_pr__pfet_01v8_lvt ad=1.32 pd=8.33 as=1.32 ps=8.33 w=8 l=0.5
X199 output.t10 CSoutput.t225 vdd.t129 gnd.t151 sky130_fd_pr__nfet_01v8_lvt ad=0.825 pd=5.33 as=0.825 ps=5.33 w=5 l=1
X200 a_n3827_n3924.t46 diffpairibias.t24 gnd.t191 gnd.t190 sky130_fd_pr__nfet_01v8 ad=2.73 pd=14.78 as=2.73 ps=14.78 w=7 l=1
X201 a_n3827_n3924.t45 diffpairibias.t25 gnd.t189 gnd.t188 sky130_fd_pr__nfet_01v8 ad=2.73 pd=14.78 as=2.73 ps=14.78 w=7 l=1
X202 a_n6972_8799.t1 plus.t17 a_n3827_n3924.t28 gnd.t126 sky130_fd_pr__nfet_01v8 ad=1.155 pd=7.33 as=1.155 ps=7.33 w=7 l=0.9
X203 CSoutput.t199 a_n6972_8799.t79 vdd.t246 vdd.t44 sky130_fd_pr__pfet_01v8_lvt ad=1.32 pd=8.33 as=1.32 ps=8.33 w=8 l=0.5
X204 vdd.t256 a_n6972_8799.t80 CSoutput.t208 vdd.t239 sky130_fd_pr__pfet_01v8_lvt ad=3.12 pd=16.78 as=1.32 ps=8.33 w=8 l=0.5
X205 a_n6972_8799.t31 plus.t18 a_n3827_n3924.t27 gnd.t163 sky130_fd_pr__nfet_01v8 ad=1.155 pd=7.33 as=1.155 ps=7.33 w=7 l=0.9
X206 CSoutput.t226 a_n1986_8322.t20 sky130_fd_pr__cap_mim_m3_1 l=12 w=12
X207 vdd.t257 a_n6972_8799.t81 CSoutput.t209 vdd.t27 sky130_fd_pr__pfet_01v8_lvt ad=1.32 pd=8.33 as=1.32 ps=8.33 w=8 l=0.5
X208 minus.t3 gnd.t73 gnd.t75 gnd.t74 sky130_fd_pr__nfet_01v8 ad=0.165 pd=1.33 as=0.165 ps=1.33 w=1 l=0.5
X209 CSoutput.t227 a_n1986_8322.t20 sky130_fd_pr__cap_mim_m3_1 l=12 w=12
X210 CSoutput.t142 commonsourceibias.t125 gnd.t340 gnd.t319 sky130_fd_pr__nfet_01v8 ad=1.155 pd=7.33 as=1.155 ps=7.33 w=7 l=1
X211 gnd.t72 gnd.t70 gnd.t71 gnd.t14 sky130_fd_pr__nfet_01v8 ad=2.73 pd=14.78 as=0 ps=0 w=7 l=1
X212 gnd.t339 commonsourceibias.t126 CSoutput.t141 gnd.t276 sky130_fd_pr__nfet_01v8 ad=1.155 pd=7.33 as=1.155 ps=7.33 w=7 l=1
X213 diffpairibias.t11 diffpairibias.t10 gnd.t415 gnd.t414 sky130_fd_pr__nfet_01v8 ad=2.73 pd=14.78 as=2.73 ps=14.78 w=7 l=1
X214 gnd.t69 gnd.t67 gnd.t68 gnd.t39 sky130_fd_pr__nfet_01v8 ad=2.73 pd=14.78 as=0 ps=0 w=7 l=1
X215 vdd.t132 CSoutput.t228 output.t9 gnd.t409 sky130_fd_pr__nfet_01v8_lvt ad=0.825 pd=5.33 as=0.825 ps=5.33 w=5 l=1
X216 a_n2848_n452.t47 minus.t15 a_n3827_n3924.t57 gnd.t2 sky130_fd_pr__nfet_01v8 ad=1.155 pd=7.33 as=1.155 ps=7.33 w=7 l=0.9
X217 gnd.t338 commonsourceibias.t127 CSoutput.t140 gnd.t237 sky130_fd_pr__nfet_01v8 ad=1.155 pd=7.33 as=1.155 ps=7.33 w=7 l=1
X218 gnd.t337 commonsourceibias.t128 CSoutput.t139 gnd.t299 sky130_fd_pr__nfet_01v8 ad=1.155 pd=7.33 as=1.155 ps=7.33 w=7 l=1
X219 CSoutput.t138 commonsourceibias.t129 gnd.t336 gnd.t227 sky130_fd_pr__nfet_01v8 ad=1.155 pd=7.33 as=2.73 ps=14.78 w=7 l=1
X220 a_n3827_n3924.t26 plus.t19 a_n6972_8799.t9 gnd.t129 sky130_fd_pr__nfet_01v8 ad=1.155 pd=7.33 as=1.155 ps=7.33 w=7 l=0.9
X221 CSoutput.t52 a_n6972_8799.t82 vdd.t216 vdd.t25 sky130_fd_pr__pfet_01v8_lvt ad=1.32 pd=8.33 as=1.32 ps=8.33 w=8 l=0.5
X222 CSoutput.t53 a_n6972_8799.t83 vdd.t217 vdd.t0 sky130_fd_pr__pfet_01v8_lvt ad=1.32 pd=8.33 as=1.32 ps=8.33 w=8 l=0.5
X223 outputibias.t5 outputibias.t4 gnd.t155 gnd.t154 sky130_fd_pr__nfet_01v8 ad=2.34 pd=12.78 as=2.34 ps=12.78 w=6 l=2
X224 a_n1808_13878.t17 a_n2848_n452.t60 vdd.t101 vdd.t100 sky130_fd_pr__pfet_01v8_lvt ad=1.485 pd=9.33 as=1.485 ps=9.33 w=9 l=0.5
X225 diffpairibias.t9 diffpairibias.t8 gnd.t169 gnd.t168 sky130_fd_pr__nfet_01v8 ad=2.73 pd=14.78 as=2.73 ps=14.78 w=7 l=1
X226 gnd.t335 commonsourceibias.t130 CSoutput.t137 gnd.t255 sky130_fd_pr__nfet_01v8 ad=1.155 pd=7.33 as=1.155 ps=7.33 w=7 l=1
X227 vdd.t170 vdd.t168 vdd.t169 vdd.t152 sky130_fd_pr__pfet_01v8_lvt ad=3.12 pd=16.78 as=0 ps=0 w=8 l=0.5
X228 vdd.t99 a_n2848_n452.t61 a_n1808_13878.t16 vdd.t98 sky130_fd_pr__pfet_01v8_lvt ad=1.485 pd=9.33 as=1.485 ps=9.33 w=9 l=0.5
X229 vdd.t120 CSoutput.t229 output.t8 gnd.t410 sky130_fd_pr__nfet_01v8_lvt ad=0.825 pd=5.33 as=0.825 ps=5.33 w=5 l=1
X230 gnd.t334 commonsourceibias.t131 CSoutput.t136 gnd.t232 sky130_fd_pr__nfet_01v8 ad=1.155 pd=7.33 as=1.155 ps=7.33 w=7 l=1
X231 CSoutput.t44 a_n6972_8799.t84 vdd.t70 vdd.t12 sky130_fd_pr__pfet_01v8_lvt ad=1.32 pd=8.33 as=1.32 ps=8.33 w=8 l=0.5
X232 commonsourceibias.t77 commonsourceibias.t76 gnd.t331 gnd.t319 sky130_fd_pr__nfet_01v8 ad=1.155 pd=7.33 as=1.155 ps=7.33 w=7 l=1
X233 vdd.t72 a_n6972_8799.t85 CSoutput.t45 vdd.t71 sky130_fd_pr__pfet_01v8_lvt ad=1.32 pd=8.33 as=1.32 ps=8.33 w=8 l=0.5
X234 a_n3827_n3924.t52 minus.t16 a_n2848_n452.t42 gnd.t172 sky130_fd_pr__nfet_01v8 ad=1.155 pd=7.33 as=1.155 ps=7.33 w=7 l=0.9
X235 diffpairibias.t7 diffpairibias.t6 gnd.t153 gnd.t152 sky130_fd_pr__nfet_01v8 ad=2.73 pd=14.78 as=2.73 ps=14.78 w=7 l=1
X236 CSoutput.t196 a_n6972_8799.t86 vdd.t243 vdd.t44 sky130_fd_pr__pfet_01v8_lvt ad=1.32 pd=8.33 as=1.32 ps=8.33 w=8 l=0.5
X237 gnd.t66 gnd.t63 gnd.t65 gnd.t64 sky130_fd_pr__nfet_01v8_lvt ad=1.95 pd=10.78 as=0 ps=0 w=5 l=1
X238 a_n3827_n3924.t15 minus.t17 a_n2848_n452.t39 gnd.t162 sky130_fd_pr__nfet_01v8 ad=1.155 pd=7.33 as=1.155 ps=7.33 w=7 l=0.9
X239 vdd.t244 a_n6972_8799.t87 CSoutput.t197 vdd.t239 sky130_fd_pr__pfet_01v8_lvt ad=3.12 pd=16.78 as=1.32 ps=8.33 w=8 l=0.5
X240 CSoutput.t135 commonsourceibias.t132 gnd.t330 gnd.t221 sky130_fd_pr__nfet_01v8 ad=1.155 pd=7.33 as=1.155 ps=7.33 w=7 l=1
X241 a_n3827_n3924.t25 plus.t20 a_n6972_8799.t6 gnd.t141 sky130_fd_pr__nfet_01v8 ad=2.73 pd=14.78 as=1.155 ps=7.33 w=7 l=0.9
X242 gnd.t62 gnd.t60 gnd.t61 gnd.t53 sky130_fd_pr__nfet_01v8 ad=2.73 pd=14.78 as=0 ps=0 w=7 l=1
X243 commonsourceibias.t75 commonsourceibias.t74 gnd.t329 gnd.t241 sky130_fd_pr__nfet_01v8 ad=1.155 pd=7.33 as=2.73 ps=14.78 w=7 l=1
X244 commonsourceibias.t15 commonsourceibias.t14 gnd.t328 gnd.t290 sky130_fd_pr__nfet_01v8 ad=1.155 pd=7.33 as=1.155 ps=7.33 w=7 l=1