* NGSPICE file created from opamp321.ext - technology: sky130A

.subckt opamp321 gnd CSoutput output vdd plus minus commonsourceibias outputibias
+ diffpairibias
X0 a_n8300_8799.t43 plus.t5 a_n2903_n3924.t38 gnd.t77 sky130_fd_pr__nfet_01v8 ad=1.155 pd=7.33 as=1.155 ps=7.33 w=7 l=0.7
X1 CSoutput.t167 commonsourceibias.t64 gnd.t362 gnd.t19 sky130_fd_pr__nfet_01v8 ad=1.155 pd=7.33 as=1.155 ps=7.33 w=7 l=1
X2 a_n2804_13878.t31 a_n2982_13878.t68 vdd.t151 vdd.t150 sky130_fd_pr__pfet_01v8 ad=1.485 pd=9.33 as=1.485 ps=9.33 w=9 l=0.5
X3 a_n2804_13878.t23 a_n2982_13878.t34 a_n2982_13878.t35 vdd.t138 sky130_fd_pr__pfet_01v8 ad=1.485 pd=9.33 as=1.485 ps=9.33 w=9 l=0.5
X4 CSoutput.t168 a_n2982_8322.t37 sky130_fd_pr__cap_mim_m3_1 l=12 w=12
X5 vdd.t95 a_n8300_8799.t44 CSoutput.t59 vdd.t59 sky130_fd_pr__pfet_01v8 ad=1.32 pd=8.33 as=1.32 ps=8.33 w=8 l=0.5
X6 gnd.t345 commonsourceibias.t65 CSoutput.t166 gnd.t44 sky130_fd_pr__nfet_01v8 ad=1.155 pd=7.33 as=1.155 ps=7.33 w=7 l=1
X7 CSoutput.t165 commonsourceibias.t66 gnd.t336 gnd.t26 sky130_fd_pr__nfet_01v8 ad=1.155 pd=7.33 as=1.155 ps=7.33 w=7 l=1
X8 CSoutput.t164 commonsourceibias.t67 gnd.t146 gnd.t144 sky130_fd_pr__nfet_01v8 ad=1.155 pd=7.33 as=1.155 ps=7.33 w=7 l=1
X9 gnd.t320 gnd.t318 plus.t4 gnd.t319 sky130_fd_pr__nfet_01v8 ad=0.165 pd=1.33 as=0.165 ps=1.33 w=1 l=0.5
X10 CSoutput.t58 a_n8300_8799.t45 vdd.t94 vdd.t12 sky130_fd_pr__pfet_01v8 ad=1.32 pd=8.33 as=3.12 ps=16.78 w=8 l=0.5
X11 a_n2903_n3924.t27 plus.t6 a_n8300_8799.t42 gnd.t185 sky130_fd_pr__nfet_01v8 ad=1.155 pd=7.33 as=1.155 ps=7.33 w=7 l=0.7
X12 a_n2903_n3924.t13 minus.t5 a_n2982_13878.t60 gnd.t125 sky130_fd_pr__nfet_01v8 ad=2.73 pd=14.78 as=1.155 ps=7.33 w=7 l=0.7
X13 a_n2982_8322.t23 a_n2982_13878.t69 a_n8300_8799.t8 vdd.t148 sky130_fd_pr__pfet_01v8 ad=1.485 pd=9.33 as=1.485 ps=9.33 w=9 l=0.5
X14 vdd.t166 CSoutput.t169 output.t18 gnd.t102 sky130_fd_pr__nfet_01v8 ad=0.825 pd=5.33 as=0.825 ps=5.33 w=5 l=1
X15 CSoutput.t9 a_n8300_8799.t46 vdd.t93 vdd.t32 sky130_fd_pr__pfet_01v8 ad=1.32 pd=8.33 as=1.32 ps=8.33 w=8 l=0.5
X16 CSoutput.t163 commonsourceibias.t68 gnd.t110 gnd.t90 sky130_fd_pr__nfet_01v8 ad=1.155 pd=7.33 as=1.155 ps=7.33 w=7 l=1
X17 gnd.t333 commonsourceibias.t69 CSoutput.t162 gnd.t21 sky130_fd_pr__nfet_01v8 ad=1.155 pd=7.33 as=1.155 ps=7.33 w=7 l=1
X18 CSoutput.t161 commonsourceibias.t70 gnd.t352 gnd.t17 sky130_fd_pr__nfet_01v8 ad=1.155 pd=7.33 as=1.155 ps=7.33 w=7 l=1
X19 gnd.t161 commonsourceibias.t71 CSoutput.t160 gnd.t69 sky130_fd_pr__nfet_01v8 ad=2.73 pd=14.78 as=1.155 ps=7.33 w=7 l=1
X20 vdd.t92 a_n8300_8799.t47 CSoutput.t8 vdd.t52 sky130_fd_pr__pfet_01v8 ad=3.12 pd=16.78 as=1.32 ps=8.33 w=8 l=0.5
X21 CSoutput.t159 commonsourceibias.t72 gnd.t18 gnd.t17 sky130_fd_pr__nfet_01v8 ad=1.155 pd=7.33 as=1.155 ps=7.33 w=7 l=1
X22 CSoutput.t158 commonsourceibias.t73 gnd.t43 gnd.t42 sky130_fd_pr__nfet_01v8 ad=1.155 pd=7.33 as=1.155 ps=7.33 w=7 l=1
X23 gnd.t165 commonsourceibias.t74 CSoutput.t157 gnd.t9 sky130_fd_pr__nfet_01v8 ad=2.73 pd=14.78 as=1.155 ps=7.33 w=7 l=1
X24 a_n2982_13878.t59 minus.t6 a_n2903_n3924.t12 gnd.t124 sky130_fd_pr__nfet_01v8 ad=1.155 pd=7.33 as=1.155 ps=7.33 w=7 l=0.7
X25 commonsourceibias.t63 commonsourceibias.t62 gnd.t363 gnd.t90 sky130_fd_pr__nfet_01v8 ad=1.155 pd=7.33 as=1.155 ps=7.33 w=7 l=1
X26 CSoutput.t156 commonsourceibias.t75 gnd.t326 gnd.t144 sky130_fd_pr__nfet_01v8 ad=1.155 pd=7.33 as=1.155 ps=7.33 w=7 l=1
X27 a_n8300_8799.t2 a_n2982_13878.t70 a_n2982_8322.t22 vdd.t134 sky130_fd_pr__pfet_01v8 ad=1.485 pd=9.33 as=1.485 ps=9.33 w=9 l=0.5
X28 vdd.t91 a_n8300_8799.t48 CSoutput.t7 vdd.t4 sky130_fd_pr__pfet_01v8 ad=1.32 pd=8.33 as=1.32 ps=8.33 w=8 l=0.5
X29 a_n2982_13878.t56 minus.t7 a_n2903_n3924.t9 gnd.t92 sky130_fd_pr__nfet_01v8 ad=1.155 pd=7.33 as=1.155 ps=7.33 w=7 l=0.7
X30 vdd.t90 a_n8300_8799.t49 CSoutput.t67 vdd.t68 sky130_fd_pr__pfet_01v8 ad=1.32 pd=8.33 as=1.32 ps=8.33 w=8 l=0.5
X31 CSoutput.t170 a_n2982_8322.t36 sky130_fd_pr__cap_mim_m3_1 l=12 w=12
X32 a_n8300_8799.t13 a_n2982_13878.t71 a_n2982_8322.t21 vdd.t97 sky130_fd_pr__pfet_01v8 ad=1.485 pd=9.33 as=3.51 ps=18.78 w=9 l=0.5
X33 CSoutput.t155 commonsourceibias.t76 gnd.t112 gnd.t19 sky130_fd_pr__nfet_01v8 ad=1.155 pd=7.33 as=1.155 ps=7.33 w=7 l=1
X34 gnd.t87 commonsourceibias.t77 CSoutput.t154 gnd.t49 sky130_fd_pr__nfet_01v8 ad=1.155 pd=7.33 as=1.155 ps=7.33 w=7 l=1
X35 gnd.t317 gnd.t315 gnd.t316 gnd.t246 sky130_fd_pr__nfet_01v8 ad=2.73 pd=14.78 as=0 ps=0 w=7 l=1
X36 CSoutput.t153 commonsourceibias.t78 gnd.t74 gnd.t15 sky130_fd_pr__nfet_01v8 ad=1.155 pd=7.33 as=1.155 ps=7.33 w=7 l=1
X37 CSoutput.t152 commonsourceibias.t79 gnd.t107 gnd.t40 sky130_fd_pr__nfet_01v8 ad=1.155 pd=7.33 as=1.155 ps=7.33 w=7 l=1
X38 a_n2903_n3924.t14 minus.t8 a_n2982_13878.t61 gnd.t126 sky130_fd_pr__nfet_01v8 ad=2.73 pd=14.78 as=1.155 ps=7.33 w=7 l=0.7
X39 gnd.t314 gnd.t312 gnd.t313 gnd.t231 sky130_fd_pr__nfet_01v8 ad=2.73 pd=14.78 as=0 ps=0 w=7 l=1
X40 CSoutput.t151 commonsourceibias.t80 gnd.t169 gnd.t51 sky130_fd_pr__nfet_01v8 ad=1.155 pd=7.33 as=1.155 ps=7.33 w=7 l=1
X41 a_n2903_n3924.t18 diffpairibias.t16 gnd.t168 gnd.t167 sky130_fd_pr__nfet_01v8 ad=2.73 pd=14.78 as=2.73 ps=14.78 w=7 l=1
X42 CSoutput.t66 a_n8300_8799.t50 vdd.t89 vdd.t41 sky130_fd_pr__pfet_01v8 ad=1.32 pd=8.33 as=1.32 ps=8.33 w=8 l=0.5
X43 gnd.t158 commonsourceibias.t81 CSoutput.t150 gnd.t23 sky130_fd_pr__nfet_01v8 ad=1.155 pd=7.33 as=1.155 ps=7.33 w=7 l=1
X44 vdd.t88 a_n8300_8799.t51 CSoutput.t65 vdd.t4 sky130_fd_pr__pfet_01v8 ad=1.32 pd=8.33 as=1.32 ps=8.33 w=8 l=0.5
X45 CSoutput.t149 commonsourceibias.t82 gnd.t172 gnd.t171 sky130_fd_pr__nfet_01v8 ad=1.155 pd=7.33 as=2.73 ps=14.78 w=7 l=1
X46 gnd.t76 commonsourceibias.t60 commonsourceibias.t61 gnd.t53 sky130_fd_pr__nfet_01v8 ad=1.155 pd=7.33 as=1.155 ps=7.33 w=7 l=1
X47 CSoutput.t148 commonsourceibias.t83 gnd.t52 gnd.t51 sky130_fd_pr__nfet_01v8 ad=1.155 pd=7.33 as=1.155 ps=7.33 w=7 l=1
X48 output.t2 outputibias.t8 gnd.t180 gnd.t179 sky130_fd_pr__nfet_01v8 ad=2.34 pd=12.78 as=2.34 ps=12.78 w=6 l=2
X49 gnd.t325 commonsourceibias.t84 CSoutput.t147 gnd.t11 sky130_fd_pr__nfet_01v8 ad=1.155 pd=7.33 as=1.155 ps=7.33 w=7 l=1
X50 a_n2903_n3924.t37 plus.t7 a_n8300_8799.t41 gnd.t25 sky130_fd_pr__nfet_01v8 ad=1.155 pd=7.33 as=1.155 ps=7.33 w=7 l=0.7
X51 a_n2804_13878.t22 a_n2982_13878.t12 a_n2982_13878.t13 vdd.t105 sky130_fd_pr__pfet_01v8 ad=1.485 pd=9.33 as=1.485 ps=9.33 w=9 l=0.5
X52 CSoutput.t146 commonsourceibias.t85 gnd.t348 gnd.t56 sky130_fd_pr__nfet_01v8 ad=1.155 pd=7.33 as=1.155 ps=7.33 w=7 l=1
X53 gnd.t79 commonsourceibias.t86 CSoutput.t145 gnd.t11 sky130_fd_pr__nfet_01v8 ad=1.155 pd=7.33 as=1.155 ps=7.33 w=7 l=1
X54 vdd.t158 CSoutput.t171 output.t17 gnd.t83 sky130_fd_pr__nfet_01v8 ad=0.825 pd=5.33 as=0.825 ps=5.33 w=5 l=1
X55 a_n2982_13878.t31 a_n2982_13878.t30 a_n2804_13878.t21 vdd.t118 sky130_fd_pr__pfet_01v8 ad=1.485 pd=9.33 as=1.485 ps=9.33 w=9 l=0.5
X56 CSoutput.t144 commonsourceibias.t87 gnd.t329 gnd.t2 sky130_fd_pr__nfet_01v8 ad=1.155 pd=7.33 as=1.155 ps=7.33 w=7 l=1
X57 gnd.t45 commonsourceibias.t88 CSoutput.t143 gnd.t44 sky130_fd_pr__nfet_01v8 ad=1.155 pd=7.33 as=1.155 ps=7.33 w=7 l=1
X58 a_n8300_8799.t40 plus.t8 a_n2903_n3924.t29 gnd.t38 sky130_fd_pr__nfet_01v8 ad=1.155 pd=7.33 as=1.155 ps=7.33 w=7 l=0.7
X59 CSoutput.t20 a_n8300_8799.t52 vdd.t87 vdd.t32 sky130_fd_pr__pfet_01v8 ad=1.32 pd=8.33 as=1.32 ps=8.33 w=8 l=0.5
X60 gnd.t14 commonsourceibias.t58 commonsourceibias.t59 gnd.t13 sky130_fd_pr__nfet_01v8 ad=1.155 pd=7.33 as=1.155 ps=7.33 w=7 l=1
X61 vdd.t243 vdd.t241 vdd.t242 vdd.t218 sky130_fd_pr__pfet_01v8 ad=3.51 pd=18.78 as=0 ps=0 w=9 l=0.5
X62 CSoutput.t142 commonsourceibias.t89 gnd.t63 gnd.t17 sky130_fd_pr__nfet_01v8 ad=1.155 pd=7.33 as=1.155 ps=7.33 w=7 l=1
X63 gnd.t311 gnd.t308 gnd.t310 gnd.t309 sky130_fd_pr__nfet_01v8 ad=1.95 pd=10.78 as=0 ps=0 w=5 l=1
X64 vdd.t86 a_n8300_8799.t53 CSoutput.t19 vdd.t52 sky130_fd_pr__pfet_01v8 ad=3.12 pd=16.78 as=1.32 ps=8.33 w=8 l=0.5
X65 gnd.t307 gnd.t305 gnd.t306 gnd.t246 sky130_fd_pr__nfet_01v8 ad=2.73 pd=14.78 as=0 ps=0 w=7 l=1
X66 CSoutput.t141 commonsourceibias.t90 gnd.t62 gnd.t56 sky130_fd_pr__nfet_01v8 ad=1.155 pd=7.33 as=1.155 ps=7.33 w=7 l=1
X67 diffpairibias.t15 diffpairibias.t14 gnd.t89 gnd.t88 sky130_fd_pr__nfet_01v8 ad=2.73 pd=14.78 as=2.73 ps=14.78 w=7 l=1
X68 a_n2982_13878.t58 minus.t9 a_n2903_n3924.t11 gnd.t118 sky130_fd_pr__nfet_01v8 ad=1.155 pd=7.33 as=1.155 ps=7.33 w=7 l=0.7
X69 a_n2982_13878.t21 a_n2982_13878.t20 a_n2804_13878.t20 vdd.t133 sky130_fd_pr__pfet_01v8 ad=1.485 pd=9.33 as=1.485 ps=9.33 w=9 l=0.5
X70 CSoutput.t140 commonsourceibias.t91 gnd.t175 gnd.t171 sky130_fd_pr__nfet_01v8 ad=1.155 pd=7.33 as=2.73 ps=14.78 w=7 l=1
X71 CSoutput.t139 commonsourceibias.t92 gnd.t193 gnd.t80 sky130_fd_pr__nfet_01v8 ad=1.155 pd=7.33 as=1.155 ps=7.33 w=7 l=1
X72 gnd.t147 commonsourceibias.t93 CSoutput.t138 gnd.t28 sky130_fd_pr__nfet_01v8 ad=1.155 pd=7.33 as=1.155 ps=7.33 w=7 l=1
X73 gnd.t8 commonsourceibias.t94 CSoutput.t137 gnd.t7 sky130_fd_pr__nfet_01v8 ad=1.155 pd=7.33 as=1.155 ps=7.33 w=7 l=1
X74 a_n8300_8799.t5 a_n2982_13878.t72 a_n2982_8322.t20 vdd.t128 sky130_fd_pr__pfet_01v8 ad=1.485 pd=9.33 as=1.485 ps=9.33 w=9 l=0.5
X75 CSoutput.t18 a_n8300_8799.t54 vdd.t85 vdd.t61 sky130_fd_pr__pfet_01v8 ad=1.32 pd=8.33 as=1.32 ps=8.33 w=8 l=0.5
X76 gnd.t66 commonsourceibias.t95 CSoutput.t136 gnd.t35 sky130_fd_pr__nfet_01v8 ad=1.155 pd=7.33 as=1.155 ps=7.33 w=7 l=1
X77 a_n2982_13878.t41 a_n2982_13878.t40 a_n2804_13878.t19 vdd.t149 sky130_fd_pr__pfet_01v8 ad=1.485 pd=9.33 as=1.485 ps=9.33 w=9 l=0.5
X78 vdd.t84 a_n8300_8799.t55 CSoutput.t28 vdd.t14 sky130_fd_pr__pfet_01v8 ad=1.32 pd=8.33 as=1.32 ps=8.33 w=8 l=0.5
X79 vdd.t83 a_n8300_8799.t56 CSoutput.t27 vdd.t68 sky130_fd_pr__pfet_01v8 ad=1.32 pd=8.33 as=1.32 ps=8.33 w=8 l=0.5
X80 a_n8300_8799.t20 a_n2982_13878.t73 a_n2982_8322.t19 vdd.t126 sky130_fd_pr__pfet_01v8 ad=1.485 pd=9.33 as=1.485 ps=9.33 w=9 l=0.5
X81 CSoutput.t135 commonsourceibias.t96 gnd.t181 gnd.t80 sky130_fd_pr__nfet_01v8 ad=1.155 pd=7.33 as=1.155 ps=7.33 w=7 l=1
X82 plus.t0 gnd.t302 gnd.t304 gnd.t303 sky130_fd_pr__nfet_01v8 ad=0.165 pd=1.33 as=0.165 ps=1.33 w=1 l=0.5
X83 diffpairibias.t13 diffpairibias.t12 gnd.t5 gnd.t4 sky130_fd_pr__nfet_01v8 ad=2.73 pd=14.78 as=2.73 ps=14.78 w=7 l=1
X84 CSoutput.t26 a_n8300_8799.t57 vdd.t82 vdd.t17 sky130_fd_pr__pfet_01v8 ad=1.32 pd=8.33 as=1.32 ps=8.33 w=8 l=0.5
X85 gnd.t339 commonsourceibias.t56 commonsourceibias.t57 gnd.t138 sky130_fd_pr__nfet_01v8 ad=1.155 pd=7.33 as=1.155 ps=7.33 w=7 l=1
X86 gnd.t198 commonsourceibias.t97 CSoutput.t134 gnd.t9 sky130_fd_pr__nfet_01v8 ad=2.73 pd=14.78 as=1.155 ps=7.33 w=7 l=1
X87 CSoutput.t133 commonsourceibias.t98 gnd.t3 gnd.t2 sky130_fd_pr__nfet_01v8 ad=1.155 pd=7.33 as=1.155 ps=7.33 w=7 l=1
X88 a_n8300_8799.t23 a_n2982_13878.t74 a_n2982_8322.t18 vdd.t141 sky130_fd_pr__pfet_01v8 ad=1.485 pd=9.33 as=1.485 ps=9.33 w=9 l=0.5
X89 gnd.t139 commonsourceibias.t99 CSoutput.t132 gnd.t138 sky130_fd_pr__nfet_01v8 ad=1.155 pd=7.33 as=1.155 ps=7.33 w=7 l=1
X90 gnd.t301 gnd.t299 gnd.t300 gnd.t227 sky130_fd_pr__nfet_01v8 ad=2.73 pd=14.78 as=0 ps=0 w=7 l=1
X91 CSoutput.t131 commonsourceibias.t100 gnd.t82 gnd.t42 sky130_fd_pr__nfet_01v8 ad=1.155 pd=7.33 as=1.155 ps=7.33 w=7 l=1
X92 CSoutput.t130 commonsourceibias.t101 gnd.t322 gnd.t72 sky130_fd_pr__nfet_01v8 ad=1.155 pd=7.33 as=1.155 ps=7.33 w=7 l=1
X93 gnd.t298 gnd.t296 gnd.t297 gnd.t235 sky130_fd_pr__nfet_01v8 ad=2.73 pd=14.78 as=0 ps=0 w=7 l=0.7
X94 a_n2982_8322.t17 a_n2982_13878.t75 a_n8300_8799.t22 vdd.t149 sky130_fd_pr__pfet_01v8 ad=1.485 pd=9.33 as=1.485 ps=9.33 w=9 l=0.5
X95 gnd.t119 commonsourceibias.t102 CSoutput.t129 gnd.t49 sky130_fd_pr__nfet_01v8 ad=1.155 pd=7.33 as=1.155 ps=7.33 w=7 l=1
X96 vdd.t240 vdd.t238 vdd.t239 vdd.t205 sky130_fd_pr__pfet_01v8 ad=3.12 pd=16.78 as=0 ps=0 w=8 l=0.5
X97 CSoutput.t49 a_n8300_8799.t58 vdd.t81 vdd.t44 sky130_fd_pr__pfet_01v8 ad=1.32 pd=8.33 as=1.32 ps=8.33 w=8 l=0.5
X98 CSoutput.t172 a_n2982_8322.t35 sky130_fd_pr__cap_mim_m3_1 l=12 w=12
X99 gnd.t162 commonsourceibias.t54 commonsourceibias.t55 gnd.t140 sky130_fd_pr__nfet_01v8 ad=1.155 pd=7.33 as=1.155 ps=7.33 w=7 l=1
X100 output.t16 CSoutput.t173 vdd.t163 gnd.t103 sky130_fd_pr__nfet_01v8 ad=0.825 pd=5.33 as=0.825 ps=5.33 w=5 l=1
X101 a_n2903_n3924.t30 plus.t9 a_n8300_8799.t39 gnd.t39 sky130_fd_pr__nfet_01v8 ad=1.155 pd=7.33 as=1.155 ps=7.33 w=7 l=0.7
X102 gnd.t163 commonsourceibias.t103 CSoutput.t128 gnd.t138 sky130_fd_pr__nfet_01v8 ad=1.155 pd=7.33 as=1.155 ps=7.33 w=7 l=1
X103 a_n2903_n3924.t24 diffpairibias.t17 gnd.t191 gnd.t190 sky130_fd_pr__nfet_01v8 ad=2.73 pd=14.78 as=2.73 ps=14.78 w=7 l=1
X104 vdd.t80 a_n8300_8799.t59 CSoutput.t48 vdd.t50 sky130_fd_pr__pfet_01v8 ad=1.32 pd=8.33 as=1.32 ps=8.33 w=8 l=0.5
X105 gnd.t295 gnd.t293 gnd.t294 gnd.t223 sky130_fd_pr__nfet_01v8 ad=2.73 pd=14.78 as=0 ps=0 w=7 l=1
X106 vdd.t79 a_n8300_8799.t60 CSoutput.t47 vdd.t72 sky130_fd_pr__pfet_01v8 ad=1.32 pd=8.33 as=1.32 ps=8.33 w=8 l=0.5
X107 a_n2982_13878.t17 a_n2982_13878.t16 a_n2804_13878.t18 vdd.t148 sky130_fd_pr__pfet_01v8 ad=1.485 pd=9.33 as=1.485 ps=9.33 w=9 l=0.5
X108 vdd.t78 a_n8300_8799.t61 CSoutput.t46 vdd.t57 sky130_fd_pr__pfet_01v8 ad=1.32 pd=8.33 as=1.32 ps=8.33 w=8 l=0.5
X109 gnd.t323 commonsourceibias.t104 CSoutput.t127 gnd.t23 sky130_fd_pr__nfet_01v8 ad=1.155 pd=7.33 as=1.155 ps=7.33 w=7 l=1
X110 a_n8300_8799.t21 a_n2982_13878.t76 a_n2982_8322.t16 vdd.t137 sky130_fd_pr__pfet_01v8 ad=1.485 pd=9.33 as=1.485 ps=9.33 w=9 l=0.5
X111 a_n2982_13878.t53 a_n2982_13878.t52 a_n2804_13878.t17 vdd.t100 sky130_fd_pr__pfet_01v8 ad=3.51 pd=18.78 as=1.485 ps=9.33 w=9 l=0.5
X112 gnd.t292 gnd.t290 gnd.t291 gnd.t223 sky130_fd_pr__nfet_01v8 ad=2.73 pd=14.78 as=0 ps=0 w=7 l=1
X113 CSoutput.t126 commonsourceibias.t105 gnd.t41 gnd.t40 sky130_fd_pr__nfet_01v8 ad=1.155 pd=7.33 as=1.155 ps=7.33 w=7 l=1
X114 gnd.t160 commonsourceibias.t106 CSoutput.t125 gnd.t159 sky130_fd_pr__nfet_01v8 ad=1.155 pd=7.33 as=1.155 ps=7.33 w=7 l=1
X115 a_n2982_13878.t0 minus.t10 a_n2903_n3924.t0 gnd.t6 sky130_fd_pr__nfet_01v8 ad=1.155 pd=7.33 as=1.155 ps=7.33 w=7 l=0.7
X116 output.t15 CSoutput.t174 vdd.t153 gnd.t104 sky130_fd_pr__nfet_01v8 ad=0.825 pd=5.33 as=0.825 ps=5.33 w=5 l=1
X117 vdd.t237 vdd.t235 vdd.t236 vdd.t225 sky130_fd_pr__pfet_01v8 ad=3.51 pd=18.78 as=0 ps=0 w=9 l=0.5
X118 gnd.t349 commonsourceibias.t52 commonsourceibias.t53 gnd.t21 sky130_fd_pr__nfet_01v8 ad=1.155 pd=7.33 as=1.155 ps=7.33 w=7 l=1
X119 gnd.t86 commonsourceibias.t107 CSoutput.t124 gnd.t53 sky130_fd_pr__nfet_01v8 ad=1.155 pd=7.33 as=1.155 ps=7.33 w=7 l=1
X120 CSoutput.t45 a_n8300_8799.t62 vdd.t77 vdd.t17 sky130_fd_pr__pfet_01v8 ad=1.32 pd=8.33 as=1.32 ps=8.33 w=8 l=0.5
X121 vdd.t234 vdd.t231 vdd.t233 vdd.t232 sky130_fd_pr__pfet_01v8 ad=3.51 pd=18.78 as=0 ps=0 w=9 l=0.5
X122 output.t1 outputibias.t9 gnd.t123 gnd.t122 sky130_fd_pr__nfet_01v8 ad=2.34 pd=12.78 as=2.34 ps=12.78 w=6 l=2
X123 a_n2804_13878.t16 a_n2982_13878.t32 a_n2982_13878.t33 vdd.t110 sky130_fd_pr__pfet_01v8 ad=1.485 pd=9.33 as=3.51 ps=18.78 w=9 l=0.5
X124 a_n2903_n3924.t2 minus.t11 a_n2982_13878.t2 gnd.t30 sky130_fd_pr__nfet_01v8 ad=1.155 pd=7.33 as=1.155 ps=7.33 w=7 l=0.7
X125 CSoutput.t44 a_n8300_8799.t63 vdd.t76 vdd.t0 sky130_fd_pr__pfet_01v8 ad=1.32 pd=8.33 as=1.32 ps=8.33 w=8 l=0.5
X126 CSoutput.t175 a_n2982_8322.t34 sky130_fd_pr__cap_mim_m3_1 l=12 w=12
X127 vdd.t75 a_n8300_8799.t64 CSoutput.t39 vdd.t72 sky130_fd_pr__pfet_01v8 ad=1.32 pd=8.33 as=1.32 ps=8.33 w=8 l=0.5
X128 vdd.t147 a_n2982_13878.t77 a_n2982_8322.t31 vdd.t146 sky130_fd_pr__pfet_01v8 ad=1.485 pd=9.33 as=1.485 ps=9.33 w=9 l=0.5
X129 a_n2982_13878.t39 a_n2982_13878.t38 a_n2804_13878.t15 vdd.t108 sky130_fd_pr__pfet_01v8 ad=1.485 pd=9.33 as=1.485 ps=9.33 w=9 l=0.5
X130 vdd.t230 vdd.t228 vdd.t229 vdd.t205 sky130_fd_pr__pfet_01v8 ad=3.12 pd=16.78 as=0 ps=0 w=8 l=0.5
X131 a_n2982_8322.t30 a_n2982_13878.t78 vdd.t145 vdd.t144 sky130_fd_pr__pfet_01v8 ad=1.485 pd=9.33 as=1.485 ps=9.33 w=9 l=0.5
X132 gnd.t136 commonsourceibias.t108 CSoutput.t123 gnd.t9 sky130_fd_pr__nfet_01v8 ad=2.73 pd=14.78 as=1.155 ps=7.33 w=7 l=1
X133 a_n2903_n3924.t26 diffpairibias.t18 gnd.t200 gnd.t199 sky130_fd_pr__nfet_01v8 ad=2.73 pd=14.78 as=2.73 ps=14.78 w=7 l=1
X134 output.t14 CSoutput.t176 vdd.t161 gnd.t84 sky130_fd_pr__nfet_01v8 ad=0.825 pd=5.33 as=0.825 ps=5.33 w=5 l=1
X135 CSoutput.t38 a_n8300_8799.t65 vdd.t74 vdd.t44 sky130_fd_pr__pfet_01v8 ad=1.32 pd=8.33 as=1.32 ps=8.33 w=8 l=0.5
X136 vdd.t164 CSoutput.t177 output.t13 gnd.t85 sky130_fd_pr__nfet_01v8 ad=0.825 pd=5.33 as=0.825 ps=5.33 w=5 l=1
X137 gnd.t328 commonsourceibias.t109 CSoutput.t122 gnd.t11 sky130_fd_pr__nfet_01v8 ad=1.155 pd=7.33 as=1.155 ps=7.33 w=7 l=1
X138 gnd.t78 commonsourceibias.t50 commonsourceibias.t51 gnd.t28 sky130_fd_pr__nfet_01v8 ad=1.155 pd=7.33 as=1.155 ps=7.33 w=7 l=1
X139 CSoutput.t121 commonsourceibias.t110 gnd.t109 gnd.t42 sky130_fd_pr__nfet_01v8 ad=1.155 pd=7.33 as=1.155 ps=7.33 w=7 l=1
X140 gnd.t289 gnd.t287 gnd.t288 gnd.t242 sky130_fd_pr__nfet_01v8 ad=2.73 pd=14.78 as=0 ps=0 w=7 l=0.7
X141 gnd.t141 commonsourceibias.t111 CSoutput.t120 gnd.t140 sky130_fd_pr__nfet_01v8 ad=1.155 pd=7.33 as=1.155 ps=7.33 w=7 l=1
X142 CSoutput.t119 commonsourceibias.t112 gnd.t1 gnd.t0 sky130_fd_pr__nfet_01v8 ad=1.155 pd=7.33 as=2.73 ps=14.78 w=7 l=1
X143 CSoutput.t118 commonsourceibias.t113 gnd.t20 gnd.t19 sky130_fd_pr__nfet_01v8 ad=1.155 pd=7.33 as=1.155 ps=7.33 w=7 l=1
X144 a_n2903_n3924.t4 minus.t12 a_n2982_13878.t3 gnd.t37 sky130_fd_pr__nfet_01v8 ad=1.155 pd=7.33 as=1.155 ps=7.33 w=7 l=0.7
X145 CSoutput.t178 a_n2982_8322.t33 sky130_fd_pr__cap_mim_m3_1 l=12 w=12
X146 vdd.t143 a_n2982_13878.t79 a_n2804_13878.t30 vdd.t142 sky130_fd_pr__pfet_01v8 ad=1.485 pd=9.33 as=1.485 ps=9.33 w=9 l=0.5
X147 a_n2982_13878.t64 minus.t13 a_n2903_n3924.t21 gnd.t182 sky130_fd_pr__nfet_01v8 ad=1.155 pd=7.33 as=2.73 ps=14.78 w=7 l=0.7
X148 a_n2903_n3924.t31 plus.t10 a_n8300_8799.t38 gnd.t331 sky130_fd_pr__nfet_01v8 ad=1.155 pd=7.33 as=1.155 ps=7.33 w=7 l=0.7
X149 a_n2903_n3924.t46 plus.t11 a_n8300_8799.t37 gnd.t170 sky130_fd_pr__nfet_01v8 ad=1.155 pd=7.33 as=1.155 ps=7.33 w=7 l=0.7
X150 vdd.t227 vdd.t224 vdd.t226 vdd.t225 sky130_fd_pr__pfet_01v8 ad=3.51 pd=18.78 as=0 ps=0 w=9 l=0.5
X151 gnd.t286 gnd.t284 gnd.t285 gnd.t223 sky130_fd_pr__nfet_01v8 ad=2.73 pd=14.78 as=0 ps=0 w=7 l=1
X152 a_n2804_13878.t14 a_n2982_13878.t14 a_n2982_13878.t15 vdd.t141 sky130_fd_pr__pfet_01v8 ad=1.485 pd=9.33 as=1.485 ps=9.33 w=9 l=0.5
X153 vdd.t73 a_n8300_8799.t66 CSoutput.t37 vdd.t72 sky130_fd_pr__pfet_01v8 ad=1.32 pd=8.33 as=1.32 ps=8.33 w=8 l=0.5
X154 vdd.t71 a_n8300_8799.t67 CSoutput.t71 vdd.t57 sky130_fd_pr__pfet_01v8 ad=1.32 pd=8.33 as=1.32 ps=8.33 w=8 l=0.5
X155 a_n2982_8322.t15 a_n2982_13878.t80 a_n8300_8799.t19 vdd.t127 sky130_fd_pr__pfet_01v8 ad=1.485 pd=9.33 as=1.485 ps=9.33 w=9 l=0.5
X156 a_n8300_8799.t36 plus.t12 a_n2903_n3924.t43 gnd.t71 sky130_fd_pr__nfet_01v8 ad=1.155 pd=7.33 as=1.155 ps=7.33 w=7 l=0.7
X157 a_n8300_8799.t35 plus.t13 a_n2903_n3924.t40 gnd.t192 sky130_fd_pr__nfet_01v8 ad=1.155 pd=7.33 as=2.73 ps=14.78 w=7 l=0.7
X158 vdd.t223 vdd.t221 vdd.t222 vdd.t187 sky130_fd_pr__pfet_01v8 ad=3.12 pd=16.78 as=0 ps=0 w=8 l=0.5
X159 vdd.t220 vdd.t217 vdd.t219 vdd.t218 sky130_fd_pr__pfet_01v8 ad=3.51 pd=18.78 as=0 ps=0 w=9 l=0.5
X160 a_n2982_8322.t29 a_n2982_13878.t81 vdd.t140 vdd.t139 sky130_fd_pr__pfet_01v8 ad=3.51 pd=18.78 as=1.485 ps=9.33 w=9 l=0.5
X161 a_n8300_8799.t15 a_n2982_13878.t82 a_n2982_8322.t14 vdd.t107 sky130_fd_pr__pfet_01v8 ad=1.485 pd=9.33 as=1.485 ps=9.33 w=9 l=0.5
X162 CSoutput.t70 a_n8300_8799.t68 vdd.t70 vdd.t25 sky130_fd_pr__pfet_01v8 ad=1.32 pd=8.33 as=1.32 ps=8.33 w=8 l=0.5
X163 diffpairibias.t11 diffpairibias.t10 gnd.t347 gnd.t346 sky130_fd_pr__nfet_01v8 ad=2.73 pd=14.78 as=2.73 ps=14.78 w=7 l=1
X164 vdd.t69 a_n8300_8799.t69 CSoutput.t34 vdd.t68 sky130_fd_pr__pfet_01v8 ad=1.32 pd=8.33 as=1.32 ps=8.33 w=8 l=0.5
X165 a_n2982_13878.t57 minus.t14 a_n2903_n3924.t10 gnd.t93 sky130_fd_pr__nfet_01v8 ad=1.155 pd=7.33 as=1.155 ps=7.33 w=7 l=0.7
X166 a_n2982_13878.t29 a_n2982_13878.t28 a_n2804_13878.t13 vdd.t119 sky130_fd_pr__pfet_01v8 ad=1.485 pd=9.33 as=1.485 ps=9.33 w=9 l=0.5
X167 CSoutput.t117 commonsourceibias.t114 gnd.t27 gnd.t26 sky130_fd_pr__nfet_01v8 ad=1.155 pd=7.33 as=1.155 ps=7.33 w=7 l=1
X168 a_n8300_8799.t14 a_n2982_13878.t83 a_n2982_8322.t13 vdd.t138 sky130_fd_pr__pfet_01v8 ad=1.485 pd=9.33 as=1.485 ps=9.33 w=9 l=0.5
X169 commonsourceibias.t49 commonsourceibias.t48 gnd.t359 gnd.t144 sky130_fd_pr__nfet_01v8 ad=1.155 pd=7.33 as=1.155 ps=7.33 w=7 l=1
X170 output.t12 CSoutput.t179 vdd.t162 gnd.t95 sky130_fd_pr__nfet_01v8 ad=0.825 pd=5.33 as=0.825 ps=5.33 w=5 l=1
X171 gnd.t343 commonsourceibias.t115 CSoutput.t116 gnd.t44 sky130_fd_pr__nfet_01v8 ad=1.155 pd=7.33 as=1.155 ps=7.33 w=7 l=1
X172 a_n2804_13878.t12 a_n2982_13878.t6 a_n2982_13878.t7 vdd.t137 sky130_fd_pr__pfet_01v8 ad=1.485 pd=9.33 as=1.485 ps=9.33 w=9 l=0.5
X173 gnd.t283 gnd.t281 minus.t4 gnd.t282 sky130_fd_pr__nfet_01v8 ad=0.165 pd=1.33 as=0.39 ps=2.78 w=1 l=0.5
X174 a_n2903_n3924.t16 minus.t15 a_n2982_13878.t62 gnd.t137 sky130_fd_pr__nfet_01v8 ad=1.155 pd=7.33 as=1.155 ps=7.33 w=7 l=0.7
X175 gnd.t280 gnd.t277 gnd.t279 gnd.t278 sky130_fd_pr__nfet_01v8 ad=1.95 pd=10.78 as=0 ps=0 w=5 l=1
X176 CSoutput.t115 commonsourceibias.t116 gnd.t113 gnd.t40 sky130_fd_pr__nfet_01v8 ad=1.155 pd=7.33 as=1.155 ps=7.33 w=7 l=1
X177 vdd.t216 vdd.t214 vdd.t215 vdd.t173 sky130_fd_pr__pfet_01v8 ad=3.51 pd=18.78 as=0 ps=0 w=9 l=0.5
X178 output.t11 CSoutput.t180 vdd.t160 gnd.t96 sky130_fd_pr__nfet_01v8 ad=0.825 pd=5.33 as=0.825 ps=5.33 w=5 l=1
X179 CSoutput.t33 a_n8300_8799.t70 vdd.t67 vdd.t61 sky130_fd_pr__pfet_01v8 ad=1.32 pd=8.33 as=1.32 ps=8.33 w=8 l=0.5
X180 CSoutput.t114 commonsourceibias.t117 gnd.t120 gnd.t56 sky130_fd_pr__nfet_01v8 ad=1.155 pd=7.33 as=1.155 ps=7.33 w=7 l=1
X181 gnd.t276 gnd.t274 gnd.t275 gnd.t231 sky130_fd_pr__nfet_01v8 ad=2.73 pd=14.78 as=0 ps=0 w=7 l=1
X182 vdd.t136 a_n2982_13878.t84 a_n2982_8322.t28 vdd.t135 sky130_fd_pr__pfet_01v8 ad=1.485 pd=9.33 as=3.51 ps=18.78 w=9 l=0.5
X183 a_n2804_13878.t11 a_n2982_13878.t44 a_n2982_13878.t45 vdd.t134 sky130_fd_pr__pfet_01v8 ad=1.485 pd=9.33 as=1.485 ps=9.33 w=9 l=0.5
X184 outputibias.t7 outputibias.t6 gnd.t156 gnd.t155 sky130_fd_pr__nfet_01v8 ad=2.34 pd=12.78 as=2.34 ps=12.78 w=6 l=2
X185 vdd.t66 a_n8300_8799.t71 CSoutput.t12 vdd.t59 sky130_fd_pr__pfet_01v8 ad=1.32 pd=8.33 as=1.32 ps=8.33 w=8 l=0.5
X186 a_n2982_13878.t19 a_n2982_13878.t18 a_n2804_13878.t10 vdd.t104 sky130_fd_pr__pfet_01v8 ad=1.485 pd=9.33 as=1.485 ps=9.33 w=9 l=0.5
X187 gnd.t121 commonsourceibias.t118 CSoutput.t113 gnd.t7 sky130_fd_pr__nfet_01v8 ad=1.155 pd=7.33 as=1.155 ps=7.33 w=7 l=1
X188 gnd.t195 commonsourceibias.t119 CSoutput.t112 gnd.t49 sky130_fd_pr__nfet_01v8 ad=1.155 pd=7.33 as=1.155 ps=7.33 w=7 l=1
X189 commonsourceibias.t47 commonsourceibias.t46 gnd.t47 gnd.t42 sky130_fd_pr__nfet_01v8 ad=1.155 pd=7.33 as=1.155 ps=7.33 w=7 l=1
X190 gnd.t358 commonsourceibias.t120 CSoutput.t111 gnd.t69 sky130_fd_pr__nfet_01v8 ad=2.73 pd=14.78 as=1.155 ps=7.33 w=7 l=1
X191 outputibias.t5 outputibias.t4 gnd.t151 gnd.t150 sky130_fd_pr__nfet_01v8 ad=2.34 pd=12.78 as=2.34 ps=12.78 w=6 l=2
X192 a_n2903_n3924.t39 plus.t14 a_n8300_8799.t34 gnd.t125 sky130_fd_pr__nfet_01v8 ad=2.73 pd=14.78 as=1.155 ps=7.33 w=7 l=0.7
X193 gnd.t207 gnd.t205 minus.t3 gnd.t206 sky130_fd_pr__nfet_01v8 ad=0.165 pd=1.33 as=0.165 ps=1.33 w=1 l=0.5
X194 vdd.t65 a_n8300_8799.t72 CSoutput.t11 vdd.t27 sky130_fd_pr__pfet_01v8 ad=1.32 pd=8.33 as=1.32 ps=8.33 w=8 l=0.5
X195 CSoutput.t110 commonsourceibias.t121 gnd.t16 gnd.t15 sky130_fd_pr__nfet_01v8 ad=1.155 pd=7.33 as=1.155 ps=7.33 w=7 l=1
X196 a_n2903_n3924.t20 diffpairibias.t19 gnd.t178 gnd.t177 sky130_fd_pr__nfet_01v8 ad=2.73 pd=14.78 as=2.73 ps=14.78 w=7 l=1
X197 gnd.t218 gnd.t215 gnd.t217 gnd.t216 sky130_fd_pr__nfet_01v8 ad=2.73 pd=14.78 as=0 ps=0 w=7 l=1
X198 a_n2903_n3924.t23 diffpairibias.t20 gnd.t189 gnd.t188 sky130_fd_pr__nfet_01v8 ad=2.73 pd=14.78 as=2.73 ps=14.78 w=7 l=1
X199 commonsourceibias.t45 commonsourceibias.t44 gnd.t127 gnd.t19 sky130_fd_pr__nfet_01v8 ad=1.155 pd=7.33 as=1.155 ps=7.33 w=7 l=1
X200 vdd.t64 a_n8300_8799.t73 CSoutput.t10 vdd.t50 sky130_fd_pr__pfet_01v8 ad=1.32 pd=8.33 as=1.32 ps=8.33 w=8 l=0.5
X201 a_n8300_8799.t33 plus.t15 a_n2903_n3924.t34 gnd.t124 sky130_fd_pr__nfet_01v8 ad=1.155 pd=7.33 as=1.155 ps=7.33 w=7 l=0.7
X202 gnd.t273 gnd.t271 gnd.t272 gnd.t246 sky130_fd_pr__nfet_01v8 ad=2.73 pd=14.78 as=0 ps=0 w=7 l=1
X203 gnd.t270 gnd.t268 gnd.t269 gnd.t231 sky130_fd_pr__nfet_01v8 ad=2.73 pd=14.78 as=0 ps=0 w=7 l=1
X204 vdd.t213 vdd.t211 vdd.t212 vdd.t187 sky130_fd_pr__pfet_01v8 ad=3.12 pd=16.78 as=0 ps=0 w=8 l=0.5
X205 vdd.t157 CSoutput.t181 output.t10 gnd.t97 sky130_fd_pr__nfet_01v8 ad=0.825 pd=5.33 as=0.825 ps=5.33 w=5 l=1
X206 CSoutput.t109 commonsourceibias.t122 gnd.t187 gnd.t26 sky130_fd_pr__nfet_01v8 ad=1.155 pd=7.33 as=1.155 ps=7.33 w=7 l=1
X207 CSoutput.t108 commonsourceibias.t123 gnd.t108 gnd.t72 sky130_fd_pr__nfet_01v8 ad=1.155 pd=7.33 as=1.155 ps=7.33 w=7 l=1
X208 a_n2804_13878.t9 a_n2982_13878.t36 a_n2982_13878.t37 vdd.t109 sky130_fd_pr__pfet_01v8 ad=1.485 pd=9.33 as=1.485 ps=9.33 w=9 l=0.5
X209 a_n2982_8322.t12 a_n2982_13878.t85 a_n8300_8799.t3 vdd.t133 sky130_fd_pr__pfet_01v8 ad=1.485 pd=9.33 as=1.485 ps=9.33 w=9 l=0.5
X210 CSoutput.t6 a_n8300_8799.t74 vdd.t63 vdd.t2 sky130_fd_pr__pfet_01v8 ad=1.32 pd=8.33 as=1.32 ps=8.33 w=8 l=0.5
X211 commonsourceibias.t43 commonsourceibias.t42 gnd.t341 gnd.t51 sky130_fd_pr__nfet_01v8 ad=1.155 pd=7.33 as=1.155 ps=7.33 w=7 l=1
X212 gnd.t12 commonsourceibias.t40 commonsourceibias.t41 gnd.t11 sky130_fd_pr__nfet_01v8 ad=1.155 pd=7.33 as=1.155 ps=7.33 w=7 l=1
X213 vdd.t154 CSoutput.t182 output.t9 gnd.t58 sky130_fd_pr__nfet_01v8 ad=0.825 pd=5.33 as=0.825 ps=5.33 w=5 l=1
X214 diffpairibias.t9 diffpairibias.t8 gnd.t149 gnd.t148 sky130_fd_pr__nfet_01v8 ad=2.73 pd=14.78 as=2.73 ps=14.78 w=7 l=1
X215 a_n2804_13878.t29 a_n2982_13878.t86 vdd.t132 vdd.t131 sky130_fd_pr__pfet_01v8 ad=1.485 pd=9.33 as=1.485 ps=9.33 w=9 l=0.5
X216 vdd.t130 a_n2982_13878.t87 a_n2804_13878.t28 vdd.t129 sky130_fd_pr__pfet_01v8 ad=1.485 pd=9.33 as=1.485 ps=9.33 w=9 l=0.5
X217 CSoutput.t107 commonsourceibias.t124 gnd.t105 gnd.t15 sky130_fd_pr__nfet_01v8 ad=1.155 pd=7.33 as=1.155 ps=7.33 w=7 l=1
X218 CSoutput.t106 commonsourceibias.t125 gnd.t111 gnd.t31 sky130_fd_pr__nfet_01v8 ad=1.155 pd=7.33 as=1.155 ps=7.33 w=7 l=1
X219 CSoutput.t5 a_n8300_8799.t75 vdd.t62 vdd.t61 sky130_fd_pr__pfet_01v8 ad=1.32 pd=8.33 as=1.32 ps=8.33 w=8 l=0.5
X220 gnd.t132 commonsourceibias.t38 commonsourceibias.t39 gnd.t44 sky130_fd_pr__nfet_01v8 ad=1.155 pd=7.33 as=1.155 ps=7.33 w=7 l=1
X221 vdd.t60 a_n8300_8799.t76 CSoutput.t61 vdd.t59 sky130_fd_pr__pfet_01v8 ad=1.32 pd=8.33 as=1.32 ps=8.33 w=8 l=0.5
X222 vdd.t58 a_n8300_8799.t77 CSoutput.t60 vdd.t57 sky130_fd_pr__pfet_01v8 ad=1.32 pd=8.33 as=1.32 ps=8.33 w=8 l=0.5
X223 commonsourceibias.t37 commonsourceibias.t36 gnd.t101 gnd.t17 sky130_fd_pr__nfet_01v8 ad=1.155 pd=7.33 as=1.155 ps=7.33 w=7 l=1
X224 outputibias.t3 outputibias.t2 gnd.t357 gnd.t356 sky130_fd_pr__nfet_01v8 ad=2.34 pd=12.78 as=2.34 ps=12.78 w=6 l=2
X225 CSoutput.t15 a_n8300_8799.t78 vdd.t56 vdd.t38 sky130_fd_pr__pfet_01v8 ad=1.32 pd=8.33 as=1.32 ps=8.33 w=8 l=0.5
X226 a_n2804_13878.t8 a_n2982_13878.t46 a_n2982_13878.t47 vdd.t128 sky130_fd_pr__pfet_01v8 ad=1.485 pd=9.33 as=1.485 ps=9.33 w=9 l=0.5
X227 a_n2903_n3924.t1 minus.t16 a_n2982_13878.t1 gnd.t25 sky130_fd_pr__nfet_01v8 ad=1.155 pd=7.33 as=1.155 ps=7.33 w=7 l=0.7
X228 gnd.t142 commonsourceibias.t126 CSoutput.t105 gnd.t67 sky130_fd_pr__nfet_01v8 ad=1.155 pd=7.33 as=1.155 ps=7.33 w=7 l=1
X229 commonsourceibias.t35 commonsourceibias.t34 gnd.t335 gnd.t171 sky130_fd_pr__nfet_01v8 ad=1.155 pd=7.33 as=2.73 ps=14.78 w=7 l=1
X230 vdd.t55 a_n8300_8799.t79 CSoutput.t14 vdd.t27 sky130_fd_pr__pfet_01v8 ad=1.32 pd=8.33 as=1.32 ps=8.33 w=8 l=0.5
X231 gnd.t36 commonsourceibias.t32 commonsourceibias.t33 gnd.t35 sky130_fd_pr__nfet_01v8 ad=1.155 pd=7.33 as=1.155 ps=7.33 w=7 l=1
X232 a_n2982_8322.t11 a_n2982_13878.t88 a_n8300_8799.t1 vdd.t96 sky130_fd_pr__pfet_01v8 ad=1.485 pd=9.33 as=1.485 ps=9.33 w=9 l=0.5
X233 a_n2982_13878.t51 a_n2982_13878.t50 a_n2804_13878.t7 vdd.t127 sky130_fd_pr__pfet_01v8 ad=1.485 pd=9.33 as=1.485 ps=9.33 w=9 l=0.5
X234 CSoutput.t104 commonsourceibias.t127 gnd.t164 gnd.t2 sky130_fd_pr__nfet_01v8 ad=1.155 pd=7.33 as=1.155 ps=7.33 w=7 l=1
X235 CSoutput.t13 a_n8300_8799.t80 vdd.t54 vdd.t29 sky130_fd_pr__pfet_01v8 ad=1.32 pd=8.33 as=3.12 ps=16.78 w=8 l=0.5
X236 diffpairibias.t7 diffpairibias.t6 gnd.t355 gnd.t354 sky130_fd_pr__nfet_01v8 ad=2.73 pd=14.78 as=2.73 ps=14.78 w=7 l=1
X237 vdd.t53 a_n8300_8799.t81 CSoutput.t55 vdd.t52 sky130_fd_pr__pfet_01v8 ad=3.12 pd=16.78 as=1.32 ps=8.33 w=8 l=0.5
X238 a_n2804_13878.t6 a_n2982_13878.t8 a_n2982_13878.t9 vdd.t126 sky130_fd_pr__pfet_01v8 ad=1.485 pd=9.33 as=1.485 ps=9.33 w=9 l=0.5
X239 commonsourceibias.t31 commonsourceibias.t30 gnd.t337 gnd.t80 sky130_fd_pr__nfet_01v8 ad=1.155 pd=7.33 as=1.155 ps=7.33 w=7 l=1
X240 a_n2982_13878.t4 minus.t17 a_n2903_n3924.t5 gnd.t38 sky130_fd_pr__nfet_01v8 ad=1.155 pd=7.33 as=1.155 ps=7.33 w=7 l=0.7
X241 a_n2982_13878.t55 minus.t18 a_n2903_n3924.t8 gnd.t77 sky130_fd_pr__nfet_01v8 ad=1.155 pd=7.33 as=1.155 ps=7.33 w=7 l=0.7
X242 vdd.t210 vdd.t208 vdd.t209 vdd.t191 sky130_fd_pr__pfet_01v8 ad=3.12 pd=16.78 as=0 ps=0 w=8 l=0.5
X243 plus.t1 gnd.t265 gnd.t267 gnd.t266 sky130_fd_pr__nfet_01v8 ad=0.165 pd=1.33 as=0.165 ps=1.33 w=1 l=0.5
X244 vdd.t125 a_n2982_13878.t89 a_n2982_8322.t27 vdd.t124 sky130_fd_pr__pfet_01v8 ad=1.485 pd=9.33 as=3.51 ps=18.78 w=9 l=0.5
X245 vdd.t51 a_n8300_8799.t82 CSoutput.t54 vdd.t50 sky130_fd_pr__pfet_01v8 ad=1.32 pd=8.33 as=1.32 ps=8.33 w=8 l=0.5
X246 a_n8300_8799.t32 plus.t16 a_n2903_n3924.t41 gnd.t118 sky130_fd_pr__nfet_01v8 ad=1.155 pd=7.33 as=1.155 ps=7.33 w=7 l=0.7
X247 gnd.t338 commonsourceibias.t128 CSoutput.t103 gnd.t67 sky130_fd_pr__nfet_01v8 ad=1.155 pd=7.33 as=1.155 ps=7.33 w=7 l=1