* NGSPICE file created from opamp295.ext - technology: sky130A

.subckt opamp295 gnd CSoutput output vdd plus minus commonsourceibias outputibias
+ diffpairibias
X0 a_n2472_13878.t26 a_n2650_13878.t27 a_n2650_13878.t28 vdd.t189 sky130_fd_pr__pfet_01v8 ad=1.485 pd=9.33 as=1.485 ps=9.33 w=9 l=0.5
X1 CSoutput.t83 a_n6972_8799.t44 vdd.t56 vdd.t19 sky130_fd_pr__pfet_01v8 ad=1.32 pd=8.33 as=3.12 ps=16.78 w=8 l=0.5
X2 a_n2472_13878.t27 a_n2650_13878.t64 vdd.t201 vdd.t200 sky130_fd_pr__pfet_01v8 ad=1.485 pd=9.33 as=1.485 ps=9.33 w=9 l=0.5
X3 vdd.t63 a_n6972_8799.t45 CSoutput.t82 vdd.t40 sky130_fd_pr__pfet_01v8 ad=1.32 pd=8.33 as=1.32 ps=8.33 w=8 l=0.5
X4 CSoutput.t119 commonsourceibias.t64 gnd.t201 gnd.t132 sky130_fd_pr__nfet_01v8 ad=1.155 pd=7.33 as=1.155 ps=7.33 w=7 l=1
X5 gnd.t347 gnd.t345 gnd.t346 gnd.t295 sky130_fd_pr__nfet_01v8 ad=2.73 pd=14.78 as=0 ps=0 w=7 l=0.7
X6 a_n6972_8799.t10 plus.t5 a_n2903_n3924.t29 gnd.t35 sky130_fd_pr__nfet_01v8 ad=1.155 pd=7.33 as=1.155 ps=7.33 w=7 l=0.7
X7 CSoutput.t144 a_n2650_8322.t5 sky130_fd_pr__cap_mim_m3_1 l=12 w=12
X8 vdd.t146 vdd.t144 vdd.t145 vdd.t72 sky130_fd_pr__pfet_01v8 ad=3.12 pd=16.78 as=0 ps=0 w=8 l=0.5
X9 gnd.t344 gnd.t342 minus.t4 gnd.t343 sky130_fd_pr__nfet_01v8 ad=0.165 pd=1.33 as=0.165 ps=1.33 w=1 l=0.5
X10 CSoutput.t120 commonsourceibias.t65 gnd.t200 gnd.t44 sky130_fd_pr__nfet_01v8 ad=1.155 pd=7.33 as=1.155 ps=7.33 w=7 l=1
X11 CSoutput.t117 commonsourceibias.t66 gnd.t199 gnd.t97 sky130_fd_pr__nfet_01v8 ad=1.155 pd=7.33 as=1.155 ps=7.33 w=7 l=1
X12 gnd.t198 commonsourceibias.t67 CSoutput.t118 gnd.t123 sky130_fd_pr__nfet_01v8 ad=1.155 pd=7.33 as=1.155 ps=7.33 w=7 l=1
X13 CSoutput.t81 a_n6972_8799.t46 vdd.t65 vdd.t6 sky130_fd_pr__pfet_01v8 ad=1.32 pd=8.33 as=1.32 ps=8.33 w=8 l=0.5
X14 a_n2903_n3924.t28 plus.t6 a_n6972_8799.t43 gnd.t36 sky130_fd_pr__nfet_01v8 ad=1.155 pd=7.33 as=1.155 ps=7.33 w=7 l=0.7
X15 a_n2650_8322.t25 a_n2650_13878.t65 a_n6972_8799.t31 vdd.t198 sky130_fd_pr__pfet_01v8 ad=1.485 pd=9.33 as=1.485 ps=9.33 w=9 l=0.5
X16 a_n2903_n3924.t2 minus.t5 a_n2650_13878.t0 gnd.t9 sky130_fd_pr__nfet_01v8 ad=1.155 pd=7.33 as=1.155 ps=7.33 w=7 l=0.7
X17 vdd.t11 CSoutput.t145 output.t16 gnd.t30 sky130_fd_pr__nfet_01v8 ad=0.825 pd=5.33 as=0.825 ps=5.33 w=5 l=1
X18 CSoutput.t80 a_n6972_8799.t47 vdd.t51 vdd.t42 sky130_fd_pr__pfet_01v8 ad=1.32 pd=8.33 as=1.32 ps=8.33 w=8 l=0.5
X19 vdd.t14 a_n6972_8799.t48 CSoutput.t79 vdd.t13 sky130_fd_pr__pfet_01v8 ad=1.32 pd=8.33 as=1.32 ps=8.33 w=8 l=0.5
X20 gnd.t197 commonsourceibias.t68 CSoutput.t121 gnd.t72 sky130_fd_pr__nfet_01v8 ad=2.73 pd=14.78 as=1.155 ps=7.33 w=7 l=1
X21 CSoutput.t122 commonsourceibias.t69 gnd.t196 gnd.t121 sky130_fd_pr__nfet_01v8 ad=1.155 pd=7.33 as=1.155 ps=7.33 w=7 l=1
X22 CSoutput.t90 commonsourceibias.t70 gnd.t195 gnd.t121 sky130_fd_pr__nfet_01v8 ad=1.155 pd=7.33 as=1.155 ps=7.33 w=7 l=1
X23 CSoutput.t91 commonsourceibias.t71 gnd.t194 gnd.t75 sky130_fd_pr__nfet_01v8 ad=1.155 pd=7.33 as=1.155 ps=7.33 w=7 l=1
X24 gnd.t193 commonsourceibias.t72 CSoutput.t123 gnd.t59 sky130_fd_pr__nfet_01v8 ad=1.155 pd=7.33 as=1.155 ps=7.33 w=7 l=1
X25 a_n2650_13878.t11 minus.t6 a_n2903_n3924.t37 gnd.t10 sky130_fd_pr__nfet_01v8 ad=1.155 pd=7.33 as=1.155 ps=7.33 w=7 l=0.7
X26 gnd.t192 commonsourceibias.t73 CSoutput.t124 gnd.t102 sky130_fd_pr__nfet_01v8 ad=2.73 pd=14.78 as=1.155 ps=7.33 w=7 l=1
X27 commonsourceibias.t61 commonsourceibias.t60 gnd.t191 gnd.t75 sky130_fd_pr__nfet_01v8 ad=1.155 pd=7.33 as=1.155 ps=7.33 w=7 l=1
X28 CSoutput.t12 commonsourceibias.t74 gnd.t190 gnd.t136 sky130_fd_pr__nfet_01v8 ad=1.155 pd=7.33 as=1.155 ps=7.33 w=7 l=1
X29 a_n6972_8799.t32 a_n2650_13878.t66 a_n2650_8322.t24 vdd.t187 sky130_fd_pr__pfet_01v8 ad=1.485 pd=9.33 as=1.485 ps=9.33 w=9 l=0.5
X30 CSoutput.t13 commonsourceibias.t75 gnd.t189 gnd.t44 sky130_fd_pr__nfet_01v8 ad=1.155 pd=7.33 as=1.155 ps=7.33 w=7 l=1
X31 a_n2650_13878.t62 minus.t7 a_n2903_n3924.t52 gnd.t353 sky130_fd_pr__nfet_01v8 ad=1.155 pd=7.33 as=1.155 ps=7.33 w=7 l=0.7
X32 a_n6972_8799.t23 a_n2650_13878.t67 a_n2650_8322.t23 vdd.t151 sky130_fd_pr__pfet_01v8 ad=1.485 pd=9.33 as=3.51 ps=18.78 w=9 l=0.5
X33 CSoutput.t146 a_n2650_8322.t4 sky130_fd_pr__cap_mim_m3_1 l=12 w=12
X34 CSoutput.t84 commonsourceibias.t76 gnd.t188 gnd.t94 sky130_fd_pr__nfet_01v8 ad=1.155 pd=7.33 as=1.155 ps=7.33 w=7 l=1
X35 gnd.t187 commonsourceibias.t77 CSoutput.t85 gnd.t112 sky130_fd_pr__nfet_01v8 ad=1.155 pd=7.33 as=1.155 ps=7.33 w=7 l=1
X36 CSoutput.t129 commonsourceibias.t78 gnd.t186 gnd.t83 sky130_fd_pr__nfet_01v8 ad=1.155 pd=7.33 as=1.155 ps=7.33 w=7 l=1
X37 CSoutput.t130 commonsourceibias.t79 gnd.t185 gnd.t132 sky130_fd_pr__nfet_01v8 ad=1.155 pd=7.33 as=1.155 ps=7.33 w=7 l=1
X38 gnd.t341 gnd.t339 gnd.t340 gnd.t262 sky130_fd_pr__nfet_01v8 ad=2.73 pd=14.78 as=0 ps=0 w=7 l=1
X39 gnd.t338 gnd.t336 gnd.t337 gnd.t255 sky130_fd_pr__nfet_01v8 ad=2.73 pd=14.78 as=0 ps=0 w=7 l=1
X40 a_n2903_n3924.t46 minus.t8 a_n2650_13878.t17 gnd.t12 sky130_fd_pr__nfet_01v8 ad=2.73 pd=14.78 as=1.155 ps=7.33 w=7 l=0.7
X41 CSoutput.t78 a_n6972_8799.t49 vdd.t20 vdd.t19 sky130_fd_pr__pfet_01v8 ad=1.32 pd=8.33 as=3.12 ps=16.78 w=8 l=0.5
X42 CSoutput.t108 commonsourceibias.t80 gnd.t184 gnd.t107 sky130_fd_pr__nfet_01v8 ad=1.155 pd=7.33 as=1.155 ps=7.33 w=7 l=1
X43 vdd.t143 vdd.t141 vdd.t142 vdd.t72 sky130_fd_pr__pfet_01v8 ad=3.12 pd=16.78 as=0 ps=0 w=8 l=0.5
X44 gnd.t183 commonsourceibias.t81 CSoutput.t109 gnd.t77 sky130_fd_pr__nfet_01v8 ad=1.155 pd=7.33 as=1.155 ps=7.33 w=7 l=1
X45 a_n2903_n3924.t54 diffpairibias.t16 gnd.t355 gnd.t354 sky130_fd_pr__nfet_01v8 ad=2.73 pd=14.78 as=2.73 ps=14.78 w=7 l=1
X46 CSoutput.t14 commonsourceibias.t82 gnd.t167 gnd.t67 sky130_fd_pr__nfet_01v8 ad=1.155 pd=7.33 as=2.73 ps=14.78 w=7 l=1
X47 gnd.t182 commonsourceibias.t48 commonsourceibias.t49 gnd.t80 sky130_fd_pr__nfet_01v8 ad=1.155 pd=7.33 as=1.155 ps=7.33 w=7 l=1
X48 CSoutput.t77 a_n6972_8799.t50 vdd.t7 vdd.t6 sky130_fd_pr__pfet_01v8 ad=1.32 pd=8.33 as=1.32 ps=8.33 w=8 l=0.5
X49 output.t18 outputibias.t8 gnd.t359 gnd.t358 sky130_fd_pr__nfet_01v8 ad=2.34 pd=12.78 as=2.34 ps=12.78 w=6 l=2
X50 CSoutput.t15 commonsourceibias.t83 gnd.t181 gnd.t107 sky130_fd_pr__nfet_01v8 ad=1.155 pd=7.33 as=1.155 ps=7.33 w=7 l=1
X51 vdd.t140 vdd.t138 vdd.t139 vdd.t88 sky130_fd_pr__pfet_01v8 ad=3.51 pd=18.78 as=0 ps=0 w=9 l=0.5
X52 a_n2903_n3924.t27 plus.t7 a_n6972_8799.t5 gnd.t11 sky130_fd_pr__nfet_01v8 ad=1.155 pd=7.33 as=1.155 ps=7.33 w=7 l=0.7
X53 gnd.t180 commonsourceibias.t84 CSoutput.t1 gnd.t127 sky130_fd_pr__nfet_01v8 ad=1.155 pd=7.33 as=1.155 ps=7.33 w=7 l=1
X54 a_n2472_13878.t25 a_n2650_13878.t31 a_n2650_13878.t32 vdd.t159 sky130_fd_pr__pfet_01v8 ad=1.485 pd=9.33 as=1.485 ps=9.33 w=9 l=0.5
X55 a_n2650_13878.t30 a_n2650_13878.t29 a_n2472_13878.t24 vdd.t170 sky130_fd_pr__pfet_01v8 ad=1.485 pd=9.33 as=1.485 ps=9.33 w=9 l=0.5
X56 CSoutput.t2 commonsourceibias.t85 gnd.t179 gnd.t91 sky130_fd_pr__nfet_01v8 ad=1.155 pd=7.33 as=1.155 ps=7.33 w=7 l=1
X57 a_n6972_8799.t14 plus.t8 a_n2903_n3924.t26 gnd.t219 sky130_fd_pr__nfet_01v8 ad=1.155 pd=7.33 as=2.73 ps=14.78 w=7 l=0.7
X58 CSoutput.t126 commonsourceibias.t86 gnd.t178 gnd.t55 sky130_fd_pr__nfet_01v8 ad=1.155 pd=7.33 as=1.155 ps=7.33 w=7 l=1
X59 vdd.t12 CSoutput.t147 output.t15 gnd.t29 sky130_fd_pr__nfet_01v8 ad=0.825 pd=5.33 as=0.825 ps=5.33 w=5 l=1
X60 gnd.t177 commonsourceibias.t87 CSoutput.t127 gnd.t127 sky130_fd_pr__nfet_01v8 ad=1.155 pd=7.33 as=1.155 ps=7.33 w=7 l=1
X61 CSoutput.t76 a_n6972_8799.t51 vdd.t43 vdd.t42 sky130_fd_pr__pfet_01v8 ad=1.32 pd=8.33 as=1.32 ps=8.33 w=8 l=0.5
X62 a_n6972_8799.t11 plus.t9 a_n2903_n3924.t25 gnd.t13 sky130_fd_pr__nfet_01v8 ad=1.155 pd=7.33 as=1.155 ps=7.33 w=7 l=0.7
X63 gnd.t176 commonsourceibias.t88 CSoutput.t138 gnd.t123 sky130_fd_pr__nfet_01v8 ad=1.155 pd=7.33 as=1.155 ps=7.33 w=7 l=1
X64 vdd.t137 vdd.t135 vdd.t136 vdd.t118 sky130_fd_pr__pfet_01v8 ad=3.51 pd=18.78 as=0 ps=0 w=9 l=0.5
X65 vdd.t15 a_n6972_8799.t52 CSoutput.t75 vdd.t13 sky130_fd_pr__pfet_01v8 ad=1.32 pd=8.33 as=1.32 ps=8.33 w=8 l=0.5
X66 CSoutput.t139 commonsourceibias.t89 gnd.t175 gnd.t91 sky130_fd_pr__nfet_01v8 ad=1.155 pd=7.33 as=1.155 ps=7.33 w=7 l=1
X67 gnd.t335 gnd.t333 gnd.t334 gnd.t262 sky130_fd_pr__nfet_01v8 ad=2.73 pd=14.78 as=0 ps=0 w=7 l=1
X68 gnd.t332 gnd.t329 gnd.t331 gnd.t330 sky130_fd_pr__nfet_01v8 ad=1.95 pd=10.78 as=0 ps=0 w=5 l=1
X69 CSoutput.t22 commonsourceibias.t90 gnd.t166 gnd.t121 sky130_fd_pr__nfet_01v8 ad=1.155 pd=7.33 as=1.155 ps=7.33 w=7 l=1
X70 gnd.t174 commonsourceibias.t50 commonsourceibias.t51 gnd.t48 sky130_fd_pr__nfet_01v8 ad=1.155 pd=7.33 as=1.155 ps=7.33 w=7 l=1
X71 a_n2903_n3924.t24 plus.t10 a_n6972_8799.t40 gnd.t227 sky130_fd_pr__nfet_01v8 ad=1.155 pd=7.33 as=1.155 ps=7.33 w=7 l=0.7
X72 a_n2650_13878.t59 minus.t9 a_n2903_n3924.t48 gnd.t348 sky130_fd_pr__nfet_01v8 ad=1.155 pd=7.33 as=1.155 ps=7.33 w=7 l=0.7
X73 diffpairibias.t15 diffpairibias.t14 gnd.t203 gnd.t202 sky130_fd_pr__nfet_01v8 ad=2.73 pd=14.78 as=2.73 ps=14.78 w=7 l=1
X74 a_n2650_13878.t52 a_n2650_13878.t51 a_n2472_13878.t23 vdd.t184 sky130_fd_pr__pfet_01v8 ad=1.485 pd=9.33 as=1.485 ps=9.33 w=9 l=0.5
X75 gnd.t173 commonsourceibias.t91 CSoutput.t23 gnd.t46 sky130_fd_pr__nfet_01v8 ad=1.155 pd=7.33 as=1.155 ps=7.33 w=7 l=1
X76 CSoutput.t25 commonsourceibias.t92 gnd.t172 gnd.t105 sky130_fd_pr__nfet_01v8 ad=1.155 pd=7.33 as=1.155 ps=7.33 w=7 l=1
X77 CSoutput.t26 commonsourceibias.t93 gnd.t171 gnd.t67 sky130_fd_pr__nfet_01v8 ad=1.155 pd=7.33 as=2.73 ps=14.78 w=7 l=1
X78 a_n6972_8799.t20 a_n2650_13878.t68 a_n2650_8322.t22 vdd.t179 sky130_fd_pr__pfet_01v8 ad=1.485 pd=9.33 as=1.485 ps=9.33 w=9 l=0.5
X79 vdd.t148 a_n6972_8799.t53 CSoutput.t74 vdd.t38 sky130_fd_pr__pfet_01v8 ad=1.32 pd=8.33 as=1.32 ps=8.33 w=8 l=0.5
X80 a_n2650_13878.t36 a_n2650_13878.t35 a_n2472_13878.t22 vdd.t199 sky130_fd_pr__pfet_01v8 ad=3.51 pd=18.78 as=1.485 ps=9.33 w=9 l=0.5
X81 CSoutput.t73 a_n6972_8799.t54 vdd.t47 vdd.t35 sky130_fd_pr__pfet_01v8 ad=1.32 pd=8.33 as=1.32 ps=8.33 w=8 l=0.5
X82 gnd.t328 gnd.t326 plus.t4 gnd.t327 sky130_fd_pr__nfet_01v8 ad=0.39 pd=2.78 as=0.165 ps=1.33 w=1 l=0.5
X83 gnd.t170 commonsourceibias.t94 CSoutput.t10 gnd.t86 sky130_fd_pr__nfet_01v8 ad=1.155 pd=7.33 as=1.155 ps=7.33 w=7 l=1
X84 gnd.t169 commonsourceibias.t95 CSoutput.t11 gnd.t57 sky130_fd_pr__nfet_01v8 ad=1.155 pd=7.33 as=1.155 ps=7.33 w=7 l=1
X85 a_n6972_8799.t29 a_n2650_13878.t69 a_n2650_8322.t21 vdd.t178 sky130_fd_pr__pfet_01v8 ad=1.485 pd=9.33 as=3.51 ps=18.78 w=9 l=0.5
X86 CSoutput.t31 commonsourceibias.t96 gnd.t168 gnd.t105 sky130_fd_pr__nfet_01v8 ad=1.155 pd=7.33 as=1.155 ps=7.33 w=7 l=1
X87 diffpairibias.t13 diffpairibias.t12 gnd.t205 gnd.t204 sky130_fd_pr__nfet_01v8 ad=2.73 pd=14.78 as=2.73 ps=14.78 w=7 l=1
X88 CSoutput.t72 a_n6972_8799.t55 vdd.t206 vdd.t24 sky130_fd_pr__pfet_01v8 ad=1.32 pd=8.33 as=3.12 ps=16.78 w=8 l=0.5
X89 gnd.t165 commonsourceibias.t62 commonsourceibias.t63 gnd.t88 sky130_fd_pr__nfet_01v8 ad=1.155 pd=7.33 as=1.155 ps=7.33 w=7 l=1
X90 CSoutput.t92 commonsourceibias.t97 gnd.t164 gnd.t70 sky130_fd_pr__nfet_01v8 ad=1.155 pd=7.33 as=1.155 ps=7.33 w=7 l=1
X91 CSoutput.t110 commonsourceibias.t98 gnd.t163 gnd.t136 sky130_fd_pr__nfet_01v8 ad=1.155 pd=7.33 as=1.155 ps=7.33 w=7 l=1
X92 gnd.t325 gnd.t323 gnd.t324 gnd.t244 sky130_fd_pr__nfet_01v8 ad=2.73 pd=14.78 as=0 ps=0 w=7 l=1
X93 gnd.t162 commonsourceibias.t99 CSoutput.t93 gnd.t102 sky130_fd_pr__nfet_01v8 ad=2.73 pd=14.78 as=1.155 ps=7.33 w=7 l=1
X94 CSoutput.t16 commonsourceibias.t100 gnd.t161 gnd.t55 sky130_fd_pr__nfet_01v8 ad=1.155 pd=7.33 as=1.155 ps=7.33 w=7 l=1
X95 gnd.t159 commonsourceibias.t101 CSoutput.t3 gnd.t88 sky130_fd_pr__nfet_01v8 ad=1.155 pd=7.33 as=1.155 ps=7.33 w=7 l=1
X96 a_n2650_8322.t20 a_n2650_13878.t70 a_n6972_8799.t34 vdd.t199 sky130_fd_pr__pfet_01v8 ad=3.51 pd=18.78 as=1.485 ps=9.33 w=9 l=0.5
X97 gnd.t160 commonsourceibias.t102 CSoutput.t140 gnd.t112 sky130_fd_pr__nfet_01v8 ad=1.155 pd=7.33 as=1.155 ps=7.33 w=7 l=1
X98 CSoutput.t148 a_n2650_8322.t3 sky130_fd_pr__cap_mim_m3_1 l=12 w=12
X99 gnd.t322 gnd.t320 gnd.t321 gnd.t248 sky130_fd_pr__nfet_01v8 ad=2.73 pd=14.78 as=0 ps=0 w=7 l=0.7
X100 gnd.t158 commonsourceibias.t54 commonsourceibias.t55 gnd.t63 sky130_fd_pr__nfet_01v8 ad=1.155 pd=7.33 as=1.155 ps=7.33 w=7 l=1
X101 gnd.t319 gnd.t317 plus.t3 gnd.t318 sky130_fd_pr__nfet_01v8 ad=0.165 pd=1.33 as=0.165 ps=1.33 w=1 l=0.5
X102 a_n2903_n3924.t23 plus.t11 a_n6972_8799.t12 gnd.t14 sky130_fd_pr__nfet_01v8 ad=1.155 pd=7.33 as=1.155 ps=7.33 w=7 l=0.7
X103 gnd.t157 commonsourceibias.t103 CSoutput.t131 gnd.t88 sky130_fd_pr__nfet_01v8 ad=1.155 pd=7.33 as=1.155 ps=7.33 w=7 l=1
X104 output.t14 CSoutput.t149 vdd.t57 gnd.t28 sky130_fd_pr__nfet_01v8 ad=0.825 pd=5.33 as=0.825 ps=5.33 w=5 l=1
X105 a_n2903_n3924.t39 diffpairibias.t17 gnd.t209 gnd.t208 sky130_fd_pr__nfet_01v8 ad=2.73 pd=14.78 as=2.73 ps=14.78 w=7 l=1
X106 vdd.t5 a_n6972_8799.t56 CSoutput.t71 vdd.t4 sky130_fd_pr__pfet_01v8 ad=3.12 pd=16.78 as=1.32 ps=8.33 w=8 l=0.5
X107 a_n6972_8799.t36 a_n2650_13878.t71 a_n2650_8322.t19 vdd.t188 sky130_fd_pr__pfet_01v8 ad=1.485 pd=9.33 as=1.485 ps=9.33 w=9 l=0.5
X108 a_n2650_13878.t40 a_n2650_13878.t39 a_n2472_13878.t21 vdd.t198 sky130_fd_pr__pfet_01v8 ad=1.485 pd=9.33 as=1.485 ps=9.33 w=9 l=0.5
X109 gnd.t156 commonsourceibias.t104 CSoutput.t20 gnd.t77 sky130_fd_pr__nfet_01v8 ad=1.155 pd=7.33 as=1.155 ps=7.33 w=7 l=1
X110 gnd.t316 gnd.t314 gnd.t315 gnd.t240 sky130_fd_pr__nfet_01v8 ad=2.73 pd=14.78 as=0 ps=0 w=7 l=1
X111 a_n2650_13878.t48 a_n2650_13878.t47 a_n2472_13878.t20 vdd.t154 sky130_fd_pr__pfet_01v8 ad=3.51 pd=18.78 as=1.485 ps=9.33 w=9 l=0.5
X112 gnd.t313 gnd.t311 gnd.t312 gnd.t240 sky130_fd_pr__nfet_01v8 ad=2.73 pd=14.78 as=0 ps=0 w=7 l=1
X113 CSoutput.t24 commonsourceibias.t105 gnd.t155 gnd.t94 sky130_fd_pr__nfet_01v8 ad=1.155 pd=7.33 as=1.155 ps=7.33 w=7 l=1
X114 CSoutput.t70 a_n6972_8799.t57 vdd.t31 vdd.t29 sky130_fd_pr__pfet_01v8 ad=1.32 pd=8.33 as=1.32 ps=8.33 w=8 l=0.5
X115 vdd.t61 a_n6972_8799.t58 CSoutput.t69 vdd.t53 sky130_fd_pr__pfet_01v8 ad=1.32 pd=8.33 as=1.32 ps=8.33 w=8 l=0.5
X116 gnd.t154 commonsourceibias.t106 CSoutput.t27 gnd.t52 sky130_fd_pr__nfet_01v8 ad=1.155 pd=7.33 as=1.155 ps=7.33 w=7 l=1
X117 a_n2650_13878.t12 minus.t10 a_n2903_n3924.t38 gnd.t8 sky130_fd_pr__nfet_01v8 ad=1.155 pd=7.33 as=1.155 ps=7.33 w=7 l=0.7
X118 CSoutput.t68 a_n6972_8799.t59 vdd.t62 vdd.t24 sky130_fd_pr__pfet_01v8 ad=1.32 pd=8.33 as=3.12 ps=16.78 w=8 l=0.5
X119 vdd.t134 vdd.t132 vdd.t133 vdd.t122 sky130_fd_pr__pfet_01v8 ad=3.51 pd=18.78 as=0 ps=0 w=9 l=0.5
X120 gnd.t153 commonsourceibias.t107 CSoutput.t32 gnd.t80 sky130_fd_pr__nfet_01v8 ad=1.155 pd=7.33 as=1.155 ps=7.33 w=7 l=1
X121 output.t13 CSoutput.t150 vdd.t58 gnd.t27 sky130_fd_pr__nfet_01v8 ad=0.825 pd=5.33 as=0.825 ps=5.33 w=5 l=1
X122 gnd.t152 commonsourceibias.t52 commonsourceibias.t53 gnd.t59 sky130_fd_pr__nfet_01v8 ad=1.155 pd=7.33 as=1.155 ps=7.33 w=7 l=1
X123 vdd.t131 vdd.t128 vdd.t130 vdd.t129 sky130_fd_pr__pfet_01v8 ad=3.51 pd=18.78 as=0 ps=0 w=9 l=0.5
X124 output.t19 outputibias.t9 gnd.t363 gnd.t362 sky130_fd_pr__nfet_01v8 ad=2.34 pd=12.78 as=2.34 ps=12.78 w=6 l=2
X125 a_n2903_n3924.t31 minus.t11 a_n2650_13878.t5 gnd.t32 sky130_fd_pr__nfet_01v8 ad=1.155 pd=7.33 as=1.155 ps=7.33 w=7 l=0.7
X126 CSoutput.t151 a_n2650_8322.t2 sky130_fd_pr__cap_mim_m3_1 l=12 w=12
X127 vdd.t127 vdd.t125 vdd.t126 vdd.t105 sky130_fd_pr__pfet_01v8 ad=3.12 pd=16.78 as=0 ps=0 w=8 l=0.5
X128 a_n2650_8322.t33 a_n2650_13878.t72 vdd.t197 vdd.t196 sky130_fd_pr__pfet_01v8 ad=1.485 pd=9.33 as=1.485 ps=9.33 w=9 l=0.5
X129 vdd.t195 a_n2650_13878.t73 a_n2650_8322.t32 vdd.t194 sky130_fd_pr__pfet_01v8 ad=1.485 pd=9.33 as=1.485 ps=9.33 w=9 l=0.5
X130 a_n2650_13878.t58 a_n2650_13878.t57 a_n2472_13878.t19 vdd.t162 sky130_fd_pr__pfet_01v8 ad=1.485 pd=9.33 as=1.485 ps=9.33 w=9 l=0.5
X131 CSoutput.t114 commonsourceibias.t108 gnd.t151 gnd.t42 sky130_fd_pr__nfet_01v8 ad=1.155 pd=7.33 as=2.73 ps=14.78 w=7 l=1
X132 gnd.t150 commonsourceibias.t109 CSoutput.t94 gnd.t63 sky130_fd_pr__nfet_01v8 ad=1.155 pd=7.33 as=1.155 ps=7.33 w=7 l=1
X133 CSoutput.t128 commonsourceibias.t110 gnd.t149 gnd.t136 sky130_fd_pr__nfet_01v8 ad=1.155 pd=7.33 as=1.155 ps=7.33 w=7 l=1
X134 gnd.t148 commonsourceibias.t111 CSoutput.t86 gnd.t127 sky130_fd_pr__nfet_01v8 ad=1.155 pd=7.33 as=1.155 ps=7.33 w=7 l=1
X135 vdd.t45 CSoutput.t152 output.t12 gnd.t26 sky130_fd_pr__nfet_01v8 ad=0.825 pd=5.33 as=0.825 ps=5.33 w=5 l=1
X136 output.t11 CSoutput.t153 vdd.t46 gnd.t25 sky130_fd_pr__nfet_01v8 ad=0.825 pd=5.33 as=0.825 ps=5.33 w=5 l=1
X137 a_n2903_n3924.t40 diffpairibias.t18 gnd.t213 gnd.t212 sky130_fd_pr__nfet_01v8 ad=2.73 pd=14.78 as=2.73 ps=14.78 w=7 l=1
X138 gnd.t147 commonsourceibias.t112 CSoutput.t33 gnd.t102 sky130_fd_pr__nfet_01v8 ad=2.73 pd=14.78 as=1.155 ps=7.33 w=7 l=1
X139 gnd.t146 commonsourceibias.t34 commonsourceibias.t35 gnd.t46 sky130_fd_pr__nfet_01v8 ad=1.155 pd=7.33 as=1.155 ps=7.33 w=7 l=1
X140 CSoutput.t17 commonsourceibias.t113 gnd.t145 gnd.t132 sky130_fd_pr__nfet_01v8 ad=1.155 pd=7.33 as=1.155 ps=7.33 w=7 l=1
X141 a_n2903_n3924.t32 minus.t12 a_n2650_13878.t6 gnd.t34 sky130_fd_pr__nfet_01v8 ad=2.73 pd=14.78 as=1.155 ps=7.33 w=7 l=0.7
X142 a_n2903_n3924.t30 minus.t13 a_n2650_13878.t4 gnd.t31 sky130_fd_pr__nfet_01v8 ad=1.155 pd=7.33 as=1.155 ps=7.33 w=7 l=0.7
X143 CSoutput.t154 a_n2650_8322.t1 sky130_fd_pr__cap_mim_m3_1 l=12 w=12
X144 vdd.t193 a_n2650_13878.t74 a_n2472_13878.t6 vdd.t192 sky130_fd_pr__pfet_01v8 ad=1.485 pd=9.33 as=1.485 ps=9.33 w=9 l=0.5
X145 a_n2650_13878.t60 minus.t14 a_n2903_n3924.t49 gnd.t37 sky130_fd_pr__nfet_01v8 ad=1.155 pd=7.33 as=1.155 ps=7.33 w=7 l=0.7
X146 vdd.t124 vdd.t121 vdd.t123 vdd.t122 sky130_fd_pr__pfet_01v8 ad=3.51 pd=18.78 as=0 ps=0 w=9 l=0.5
X147 a_n2903_n3924.t22 plus.t12 a_n6972_8799.t7 gnd.t33 sky130_fd_pr__nfet_01v8 ad=1.155 pd=7.33 as=1.155 ps=7.33 w=7 l=0.7
X148 a_n2903_n3924.t21 plus.t13 a_n6972_8799.t9 gnd.t41 sky130_fd_pr__nfet_01v8 ad=1.155 pd=7.33 as=1.155 ps=7.33 w=7 l=0.7
X149 gnd.t310 gnd.t308 gnd.t309 gnd.t240 sky130_fd_pr__nfet_01v8 ad=2.73 pd=14.78 as=0 ps=0 w=7 l=1
X150 a_n2650_13878.t14 minus.t15 a_n2903_n3924.t43 gnd.t218 sky130_fd_pr__nfet_01v8 ad=1.155 pd=7.33 as=1.155 ps=7.33 w=7 l=0.7
X151 gnd.t307 gnd.t305 plus.t2 gnd.t306 sky130_fd_pr__nfet_01v8 ad=0.165 pd=1.33 as=0.39 ps=2.78 w=1 l=0.5
X152 a_n6972_8799.t17 plus.t14 a_n2903_n3924.t20 gnd.t226 sky130_fd_pr__nfet_01v8 ad=1.155 pd=7.33 as=1.155 ps=7.33 w=7 l=0.7
X153 a_n6972_8799.t35 a_n2650_13878.t75 a_n2650_8322.t18 vdd.t160 sky130_fd_pr__pfet_01v8 ad=1.485 pd=9.33 as=1.485 ps=9.33 w=9 l=0.5
X154 a_n2650_8322.t31 a_n2650_13878.t76 vdd.t191 vdd.t190 sky130_fd_pr__pfet_01v8 ad=3.51 pd=18.78 as=1.485 ps=9.33 w=9 l=0.5
X155 vdd.t120 vdd.t117 vdd.t119 vdd.t118 sky130_fd_pr__pfet_01v8 ad=3.51 pd=18.78 as=0 ps=0 w=9 l=0.5
X156 a_n6972_8799.t15 plus.t15 a_n2903_n3924.t19 gnd.t40 sky130_fd_pr__nfet_01v8 ad=1.155 pd=7.33 as=2.73 ps=14.78 w=7 l=0.7
X157 vdd.t203 a_n6972_8799.t60 CSoutput.t67 vdd.t53 sky130_fd_pr__pfet_01v8 ad=1.32 pd=8.33 as=1.32 ps=8.33 w=8 l=0.5
X158 a_n2650_13878.t20 a_n2650_13878.t19 a_n2472_13878.t18 vdd.t173 sky130_fd_pr__pfet_01v8 ad=1.485 pd=9.33 as=1.485 ps=9.33 w=9 l=0.5
X159 a_n2650_13878.t9 minus.t16 a_n2903_n3924.t35 gnd.t0 sky130_fd_pr__nfet_01v8 ad=1.155 pd=7.33 as=1.155 ps=7.33 w=7 l=0.7
X160 diffpairibias.t11 diffpairibias.t10 gnd.t352 gnd.t351 sky130_fd_pr__nfet_01v8 ad=2.73 pd=14.78 as=2.73 ps=14.78 w=7 l=1
X161 CSoutput.t66 a_n6972_8799.t61 vdd.t60 vdd.t29 sky130_fd_pr__pfet_01v8 ad=1.32 pd=8.33 as=1.32 ps=8.33 w=8 l=0.5
X162 a_n6972_8799.t30 a_n2650_13878.t77 a_n2650_8322.t17 vdd.t189 sky130_fd_pr__pfet_01v8 ad=1.485 pd=9.33 as=1.485 ps=9.33 w=9 l=0.5
X163 CSoutput.t141 commonsourceibias.t114 gnd.t144 gnd.t97 sky130_fd_pr__nfet_01v8 ad=1.155 pd=7.33 as=1.155 ps=7.33 w=7 l=1
X164 a_n2472_13878.t17 a_n2650_13878.t25 a_n2650_13878.t26 vdd.t188 sky130_fd_pr__pfet_01v8 ad=1.485 pd=9.33 as=1.485 ps=9.33 w=9 l=0.5
X165 gnd.t143 commonsourceibias.t115 CSoutput.t132 gnd.t123 sky130_fd_pr__nfet_01v8 ad=1.155 pd=7.33 as=1.155 ps=7.33 w=7 l=1
X166 output.t10 CSoutput.t155 vdd.t66 gnd.t24 sky130_fd_pr__nfet_01v8 ad=0.825 pd=5.33 as=0.825 ps=5.33 w=5 l=1
X167 commonsourceibias.t33 commonsourceibias.t32 gnd.t142 gnd.t44 sky130_fd_pr__nfet_01v8 ad=1.155 pd=7.33 as=1.155 ps=7.33 w=7 l=1
X168 CSoutput.t18 commonsourceibias.t116 gnd.t141 gnd.t94 sky130_fd_pr__nfet_01v8 ad=1.155 pd=7.33 as=1.155 ps=7.33 w=7 l=1
X169 a_n2903_n3924.t41 minus.t17 a_n2650_13878.t13 gnd.t7 sky130_fd_pr__nfet_01v8 ad=1.155 pd=7.33 as=1.155 ps=7.33 w=7 l=0.7
X170 gnd.t304 gnd.t301 gnd.t303 gnd.t302 sky130_fd_pr__nfet_01v8 ad=1.95 pd=10.78 as=0 ps=0 w=5 l=1
X171 a_n2472_13878.t16 a_n2650_13878.t49 a_n2650_13878.t50 vdd.t187 sky130_fd_pr__pfet_01v8 ad=1.485 pd=9.33 as=1.485 ps=9.33 w=9 l=0.5
X172 CSoutput.t65 a_n6972_8799.t62 vdd.t207 vdd.t35 sky130_fd_pr__pfet_01v8 ad=1.32 pd=8.33 as=1.32 ps=8.33 w=8 l=0.5
X173 vdd.t186 a_n2650_13878.t78 a_n2650_8322.t30 vdd.t185 sky130_fd_pr__pfet_01v8 ad=1.485 pd=9.33 as=3.51 ps=18.78 w=9 l=0.5
X174 gnd.t300 gnd.t298 gnd.t299 gnd.t255 sky130_fd_pr__nfet_01v8 ad=2.73 pd=14.78 as=0 ps=0 w=7 l=1
X175 CSoutput.t125 commonsourceibias.t117 gnd.t140 gnd.t91 sky130_fd_pr__nfet_01v8 ad=1.155 pd=7.33 as=1.155 ps=7.33 w=7 l=1
X176 gnd.t297 gnd.t294 gnd.t296 gnd.t295 sky130_fd_pr__nfet_01v8 ad=2.73 pd=14.78 as=0 ps=0 w=7 l=0.7
X177 output.t9 CSoutput.t156 vdd.t67 gnd.t23 sky130_fd_pr__nfet_01v8 ad=0.825 pd=5.33 as=0.825 ps=5.33 w=5 l=1
X178 a_n2650_13878.t38 a_n2650_13878.t37 a_n2472_13878.t15 vdd.t157 sky130_fd_pr__pfet_01v8 ad=1.485 pd=9.33 as=1.485 ps=9.33 w=9 l=0.5
X179 vdd.t41 a_n6972_8799.t63 CSoutput.t64 vdd.t40 sky130_fd_pr__pfet_01v8 ad=1.32 pd=8.33 as=1.32 ps=8.33 w=8 l=0.5
X180 vdd.t116 vdd.t114 vdd.t115 vdd.t105 sky130_fd_pr__pfet_01v8 ad=3.12 pd=16.78 as=0 ps=0 w=8 l=0.5
X181 gnd.t139 commonsourceibias.t118 CSoutput.t95 gnd.t112 sky130_fd_pr__nfet_01v8 ad=1.155 pd=7.33 as=1.155 ps=7.33 w=7 l=1
X182 gnd.t138 commonsourceibias.t119 CSoutput.t106 gnd.t86 sky130_fd_pr__nfet_01v8 ad=1.155 pd=7.33 as=1.155 ps=7.33 w=7 l=1
X183 outputibias.t7 outputibias.t6 gnd.t207 gnd.t206 sky130_fd_pr__nfet_01v8 ad=2.34 pd=12.78 as=2.34 ps=12.78 w=6 l=2
X184 commonsourceibias.t39 commonsourceibias.t38 gnd.t137 gnd.t136 sky130_fd_pr__nfet_01v8 ad=1.155 pd=7.33 as=1.155 ps=7.33 w=7 l=1
X185 minus.t3 gnd.t291 gnd.t293 gnd.t292 sky130_fd_pr__nfet_01v8 ad=0.165 pd=1.33 as=0.165 ps=1.33 w=1 l=0.5
X186 gnd.t135 commonsourceibias.t120 CSoutput.t19 gnd.t72 sky130_fd_pr__nfet_01v8 ad=2.73 pd=14.78 as=1.155 ps=7.33 w=7 l=1
X187 outputibias.t5 outputibias.t4 gnd.t225 gnd.t224 sky130_fd_pr__nfet_01v8 ad=2.34 pd=12.78 as=2.34 ps=12.78 w=6 l=2
X188 CSoutput.t87 commonsourceibias.t121 gnd.t134 gnd.t83 sky130_fd_pr__nfet_01v8 ad=1.155 pd=7.33 as=1.155 ps=7.33 w=7 l=1
X189 a_n2903_n3924.t18 plus.t16 a_n6972_8799.t3 gnd.t9 sky130_fd_pr__nfet_01v8 ad=1.155 pd=7.33 as=1.155 ps=7.33 w=7 l=0.7
X190 gnd.t290 gnd.t287 gnd.t289 gnd.t288 sky130_fd_pr__nfet_01v8 ad=2.73 pd=14.78 as=0 ps=0 w=7 l=1
X191 a_n2903_n3924.t51 diffpairibias.t19 gnd.t350 gnd.t349 sky130_fd_pr__nfet_01v8 ad=2.73 pd=14.78 as=2.73 ps=14.78 w=7 l=1
X192 a_n2903_n3924.t0 diffpairibias.t20 gnd.t2 gnd.t1 sky130_fd_pr__nfet_01v8 ad=2.73 pd=14.78 as=2.73 ps=14.78 w=7 l=1
X193 commonsourceibias.t37 commonsourceibias.t36 gnd.t133 gnd.t132 sky130_fd_pr__nfet_01v8 ad=1.155 pd=7.33 as=1.155 ps=7.33 w=7 l=1
X194 a_n6972_8799.t4 plus.t17 a_n2903_n3924.t17 gnd.t10 sky130_fd_pr__nfet_01v8 ad=1.155 pd=7.33 as=1.155 ps=7.33 w=7 l=0.7
X195 gnd.t286 gnd.t284 gnd.t285 gnd.t262 sky130_fd_pr__nfet_01v8 ad=2.73 pd=14.78 as=0 ps=0 w=7 l=1
X196 gnd.t283 gnd.t281 gnd.t282 gnd.t255 sky130_fd_pr__nfet_01v8 ad=2.73 pd=14.78 as=0 ps=0 w=7 l=1
X197 a_n2472_13878.t14 a_n2650_13878.t43 a_n2650_13878.t44 vdd.t161 sky130_fd_pr__pfet_01v8 ad=1.485 pd=9.33 as=1.485 ps=9.33 w=9 l=0.5
X198 CSoutput.t96 commonsourceibias.t122 gnd.t131 gnd.t97 sky130_fd_pr__nfet_01v8 ad=1.155 pd=7.33 as=1.155 ps=7.33 w=7 l=1
X199 vdd.t68 CSoutput.t157 output.t8 gnd.t22 sky130_fd_pr__nfet_01v8 ad=0.825 pd=5.33 as=0.825 ps=5.33 w=5 l=1
X200 CSoutput.t4 commonsourceibias.t123 gnd.t129 gnd.t70 sky130_fd_pr__nfet_01v8 ad=1.155 pd=7.33 as=1.155 ps=7.33 w=7 l=1
X201 vdd.t113 vdd.t111 vdd.t112 vdd.t84 sky130_fd_pr__pfet_01v8 ad=3.51 pd=18.78 as=0 ps=0 w=9 l=0.5
X202 a_n2650_8322.t16 a_n2650_13878.t79 a_n6972_8799.t24 vdd.t184 sky130_fd_pr__pfet_01v8 ad=1.485 pd=9.33 as=1.485 ps=9.33 w=9 l=0.5
X203 CSoutput.t63 a_n6972_8799.t64 vdd.t205 vdd.t19 sky130_fd_pr__pfet_01v8 ad=1.32 pd=8.33 as=3.12 ps=16.78 w=8 l=0.5
X204 commonsourceibias.t47 commonsourceibias.t46 gnd.t130 gnd.t107 sky130_fd_pr__nfet_01v8 ad=1.155 pd=7.33 as=1.155 ps=7.33 w=7 l=1
X205 a_n2472_13878.t5 a_n2650_13878.t80 vdd.t183 vdd.t182 sky130_fd_pr__pfet_01v8 ad=1.485 pd=9.33 as=1.485 ps=9.33 w=9 l=0.5
X206 vdd.t69 CSoutput.t158 output.t7 gnd.t21 sky130_fd_pr__nfet_01v8 ad=0.825 pd=5.33 as=0.825 ps=5.33 w=5 l=1
X207 gnd.t128 commonsourceibias.t44 commonsourceibias.t45 gnd.t127 sky130_fd_pr__nfet_01v8 ad=1.155 pd=7.33 as=1.155 ps=7.33 w=7 l=1
X208 diffpairibias.t9 diffpairibias.t8 gnd.t211 gnd.t210 sky130_fd_pr__nfet_01v8 ad=2.73 pd=14.78 as=2.73 ps=14.78 w=7 l=1
X209 vdd.t181 a_n2650_13878.t81 a_n2472_13878.t4 vdd.t180 sky130_fd_pr__pfet_01v8 ad=1.485 pd=9.33 as=1.485 ps=9.33 w=9 l=0.5
X210 CSoutput.t97 commonsourceibias.t124 gnd.t126 gnd.t83 sky130_fd_pr__nfet_01v8 ad=1.155 pd=7.33 as=1.155 ps=7.33 w=7 l=1
X211 CSoutput.t133 commonsourceibias.t125 gnd.t125 gnd.t50 sky130_fd_pr__nfet_01v8 ad=1.155 pd=7.33 as=1.155 ps=7.33 w=7 l=1
X212 vdd.t149 a_n6972_8799.t65 CSoutput.t62 vdd.t40 sky130_fd_pr__pfet_01v8 ad=1.32 pd=8.33 as=1.32 ps=8.33 w=8 l=0.5
X213 CSoutput.t61 a_n6972_8799.t66 vdd.t36 vdd.t35 sky130_fd_pr__pfet_01v8 ad=1.32 pd=8.33 as=1.32 ps=8.33 w=8 l=0.5
X214 gnd.t124 commonsourceibias.t42 commonsourceibias.t43 gnd.t123 sky130_fd_pr__nfet_01v8 ad=1.155 pd=7.33 as=1.155 ps=7.33 w=7 l=1
X215 commonsourceibias.t41 commonsourceibias.t40 gnd.t122 gnd.t121 sky130_fd_pr__nfet_01v8 ad=1.155 pd=7.33 as=1.155 ps=7.33 w=7 l=1
X216 outputibias.t3 outputibias.t2 gnd.t39 gnd.t38 sky130_fd_pr__nfet_01v8 ad=2.34 pd=12.78 as=2.34 ps=12.78 w=6 l=2
X217 a_n2472_13878.t13 a_n2650_13878.t33 a_n2650_13878.t34 vdd.t179 sky130_fd_pr__pfet_01v8 ad=1.485 pd=9.33 as=1.485 ps=9.33 w=9 l=0.5
X218 plus.t1 gnd.t278 gnd.t280 gnd.t279 sky130_fd_pr__nfet_01v8 ad=0.165 pd=1.33 as=0.165 ps=1.33 w=1 l=0.5
X219 gnd.t117 commonsourceibias.t126 CSoutput.t115 gnd.t61 sky130_fd_pr__nfet_01v8 ad=1.155 pd=7.33 as=1.155 ps=7.33 w=7 l=1
X220 a_n2903_n3924.t4 minus.t18 a_n2650_13878.t2 gnd.t11 sky130_fd_pr__nfet_01v8 ad=1.155 pd=7.33 as=1.155 ps=7.33 w=7 l=0.7
X221 commonsourceibias.t7 commonsourceibias.t6 gnd.t120 gnd.t67 sky130_fd_pr__nfet_01v8 ad=1.155 pd=7.33 as=2.73 ps=14.78 w=7 l=1
X222 a_n2650_8322.t15 a_n2650_13878.t82 a_n6972_8799.t37 vdd.t150 sky130_fd_pr__pfet_01v8 ad=1.485 pd=9.33 as=1.485 ps=9.33 w=9 l=0.5
X223 a_n2650_13878.t16 minus.t19 a_n2903_n3924.t45 gnd.t219 sky130_fd_pr__nfet_01v8 ad=1.155 pd=7.33 as=2.73 ps=14.78 w=7 l=0.7
X224 gnd.t119 commonsourceibias.t4 commonsourceibias.t5 gnd.t57 sky130_fd_pr__nfet_01v8 ad=1.155 pd=7.33 as=1.155 ps=7.33 w=7 l=1
X225 a_n2472_13878.t12 a_n2650_13878.t53 a_n2650_13878.t54 vdd.t178 sky130_fd_pr__pfet_01v8 ad=1.485 pd=9.33 as=3.51 ps=18.78 w=9 l=0.5
X226 vdd.t48 a_n6972_8799.t67 CSoutput.t60 vdd.t13 sky130_fd_pr__pfet_01v8 ad=1.32 pd=8.33 as=1.32 ps=8.33 w=8 l=0.5
X227 CSoutput.t59 a_n6972_8799.t68 vdd.t64 vdd.t2 sky130_fd_pr__pfet_01v8 ad=1.32 pd=8.33 as=1.32 ps=8.33 w=8 l=0.5
X228 a_n2650_13878.t1 minus.t20 a_n2903_n3924.t3 gnd.t13 sky130_fd_pr__nfet_01v8 ad=1.155 pd=7.33 as=1.155 ps=7.33 w=7 l=0.7
X229 diffpairibias.t7 diffpairibias.t6 gnd.t357 gnd.t356 sky130_fd_pr__nfet_01v8 ad=2.73 pd=14.78 as=2.73 ps=14.78 w=7 l=1
X230 CSoutput.t5 commonsourceibias.t127 gnd.t118 gnd.t55 sky130_fd_pr__nfet_01v8 ad=1.155 pd=7.33 as=1.155 ps=7.33 w=7 l=1
X231 commonsourceibias.t3 commonsourceibias.t2 gnd.t116 gnd.t105 sky130_fd_pr__nfet_01v8 ad=1.155 pd=7.33 as=1.155 ps=7.33 w=7 l=1
X232 vdd.t177 a_n2650_13878.t83 a_n2650_8322.t29 vdd.t176 sky130_fd_pr__pfet_01v8 ad=1.485 pd=9.33 as=3.51 ps=18.78 w=9 l=0.5
X233 a_n2650_13878.t7 minus.t21 a_n2903_n3924.t33 gnd.t35 sky130_fd_pr__nfet_01v8 ad=1.155 pd=7.33 as=1.155 ps=7.33 w=7 l=0.7
X234 a_n2903_n3924.t44 minus.t22 a_n2650_13878.t15 gnd.t227 sky130_fd_pr__nfet_01v8 ad=1.155 pd=7.33 as=1.155 ps=7.33 w=7 l=0.7
X235 a_n6972_8799.t39 plus.t18 a_n2903_n3924.t16 gnd.t348 sky130_fd_pr__nfet_01v8 ad=1.155 pd=7.33 as=1.155 ps=7.33 w=7 l=0.7
X236 gnd.t115 commonsourceibias.t128 CSoutput.t134 gnd.t61 sky130_fd_pr__nfet_01v8 ad=1.155 pd=7.33 as=1.155 ps=7.33 w=7 l=1
X237 a_n2903_n3924.t34 minus.t23 a_n2650_13878.t8 gnd.t36 sky130_fd_pr__nfet_01v8 ad=1.155 pd=7.33 as=1.155 ps=7.33 w=7 l=0.7
X238 a_n2472_13878.t3 a_n2650_13878.t84 vdd.t175 vdd.t174 sky130_fd_pr__pfet_01v8 ad=3.51 pd=18.78 as=1.485 ps=9.33 w=9 l=0.5
X239 CSoutput.t34 commonsourceibias.t129 gnd.t114 gnd.t42 sky130_fd_pr__nfet_01v8 ad=1.155 pd=7.33 as=2.73 ps=14.78 w=7 l=1
X240 gnd.t113 commonsourceibias.t0 commonsourceibias.t1 gnd.t112 sky130_fd_pr__nfet_01v8 ad=1.155 pd=7.33 as=1.155 ps=7.33 w=7 l=1
X241 vdd.t59 a_n6972_8799.t69 CSoutput.t58 vdd.t4 sky130_fd_pr__pfet_01v8 ad=3.12 pd=16.78 as=1.32 ps=8.33 w=8 l=0.5
X242 output.t6 CSoutput.t159 vdd.t70 gnd.t20 sky130_fd_pr__nfet_01v8 ad=0.825 pd=5.33 as=0.825 ps=5.33 w=5 l=1
X243 gnd.t277 gnd.t275 minus.t2 gnd.t276 sky130_fd_pr__nfet_01v8 ad=0.165 pd=1.33 as=0.39 ps=2.78 w=1 l=0.5
X244 gnd.t111 commonsourceibias.t130 CSoutput.t142 gnd.t46 sky130_fd_pr__nfet_01v8 ad=1.155 pd=7.33 as=1.155 ps=7.33 w=7 l=1
X245 gnd.t274 gnd.t271 gnd.t273 gnd.t272 sky130_fd_pr__nfet_01v8 ad=2.73 pd=14.78 as=0 ps=0 w=7 l=1
X246 a_n2650_8322.t14 a_n2650_13878.t85 a_n6972_8799.t27 vdd.t173 sky130_fd_pr__pfet_01v8 ad=1.485 pd=9.33 as=1.485 ps=9.33 w=9 l=0.5
X247 vdd.t172 a_n2650_13878.t86 a_n2650_8322.t28 vdd.t171 sky130_fd_pr__pfet_01v8 ad=1.485 pd=9.33 as=1.485 ps=9.33 w=9 l=0.5