* NGSPICE file created from opamp.ext - technology: sky130A

.subckt opamp output vdd plus minus commonsourceibias outputibias diffpairibias gnd CSoutput
Cload output gnd 0.0p
X0 CSoutput.t138 commonsourceibias.t64 gnd.t356 gnd.t287 sky130_fd_pr__nfet_01v8 ad=1.155 pd=7.33 as=1.155 ps=7.33 w=7 l=1
X1 CSoutput.t144 a_n1986_8322.t0 sky130_fd_pr__cap_mim_m3_1 l=12 w=12
X2 vdd.t177 a_n5644_8799.t36 CSoutput.t139 vdd.t124 sky130_fd_pr__pfet_01v8_lvt ad=1.32 pd=8.33 as=1.32 ps=8.33 w=8 l=0.5
X3 a_n1986_8322.t14 a_n1986_13878.t48 vdd.t193 vdd.t192 sky130_fd_pr__pfet_01v8_lvt ad=1.485 pd=9.33 as=1.485 ps=9.33 w=9 l=0.5
X4 a_n1808_13878.t19 a_n1986_13878.t26 a_n1986_13878.t27 vdd.t113 sky130_fd_pr__pfet_01v8_lvt ad=1.485 pd=9.33 as=3.51 ps=18.78 w=9 l=0.5
X5 CSoutput.t137 commonsourceibias.t65 gnd.t355 gnd.t203 sky130_fd_pr__nfet_01v8 ad=1.155 pd=7.33 as=1.155 ps=7.33 w=7 l=1
X6 CSoutput.t136 commonsourceibias.t66 gnd.t354 gnd.t252 sky130_fd_pr__nfet_01v8 ad=1.155 pd=7.33 as=1.155 ps=7.33 w=7 l=1
X7 gnd.t353 commonsourceibias.t67 CSoutput.t135 gnd.t278 sky130_fd_pr__nfet_01v8 ad=1.155 pd=7.33 as=1.155 ps=7.33 w=7 l=1
X8 a_n1986_13878.t23 a_n1986_13878.t22 a_n1808_13878.t18 vdd.t16 sky130_fd_pr__pfet_01v8_lvt ad=1.485 pd=9.33 as=1.485 ps=9.33 w=9 l=0.5
X9 a_n1808_13878.t17 a_n1986_13878.t12 a_n1986_13878.t13 vdd.t33 sky130_fd_pr__pfet_01v8_lvt ad=1.485 pd=9.33 as=1.485 ps=9.33 w=9 l=0.5
X10 vdd.t111 vdd.t109 vdd.t110 vdd.t84 sky130_fd_pr__pfet_01v8_lvt ad=3.51 pd=18.78 as=0 ps=0 w=9 l=0.5
X11 a_n1808_13878.t7 a_n1986_13878.t49 vdd.t195 vdd.t194 sky130_fd_pr__pfet_01v8_lvt ad=1.485 pd=9.33 as=1.485 ps=9.33 w=9 l=0.5
X12 CSoutput.t18 a_n5644_8799.t37 vdd.t176 vdd.t120 sky130_fd_pr__pfet_01v8_lvt ad=1.32 pd=8.33 as=1.32 ps=8.33 w=8 l=0.5
X13 gnd.t146 gnd.t144 gnd.t145 gnd.t77 sky130_fd_pr__nfet_01v8 ad=2.73 pd=14.78 as=0 ps=0 w=7 l=0.5
X14 vdd.t108 vdd.t106 vdd.t107 vdd.t59 sky130_fd_pr__pfet_01v8_lvt ad=3.12 pd=16.78 as=0 ps=0 w=8 l=0.5
X15 minus.t4 gnd.t141 gnd.t143 gnd.t142 sky130_fd_pr__nfet_01v8 ad=0.165 pd=1.33 as=0.165 ps=1.33 w=1 l=0.5
X16 gnd.t140 gnd.t139 plus.t4 gnd.t77 sky130_fd_pr__nfet_01v8 ad=0.165 pd=1.33 as=0.165 ps=1.33 w=1 l=0.5
X17 gnd.t352 commonsourceibias.t68 CSoutput.t134 gnd.t231 sky130_fd_pr__nfet_01v8 ad=2.73 pd=14.78 as=1.155 ps=7.33 w=7 l=1
X18 a_n5644_8799.t0 plus.t5 a_n2903_n3924.t52 gnd.t2 sky130_fd_pr__nfet_01v8 ad=1.155 pd=7.33 as=1.155 ps=7.33 w=7 l=0.5
X19 gnd.t138 gnd.t136 gnd.t137 gnd.t73 sky130_fd_pr__nfet_01v8 ad=2.73 pd=14.78 as=0 ps=0 w=7 l=0.5
X20 CSoutput.t133 commonsourceibias.t69 gnd.t351 gnd.t276 sky130_fd_pr__nfet_01v8 ad=1.155 pd=7.33 as=1.155 ps=7.33 w=7 l=1
X21 CSoutput.t132 commonsourceibias.t70 gnd.t341 gnd.t276 sky130_fd_pr__nfet_01v8 ad=1.155 pd=7.33 as=1.155 ps=7.33 w=7 l=1
X22 CSoutput.t131 commonsourceibias.t71 gnd.t350 gnd.t199 sky130_fd_pr__nfet_01v8 ad=1.155 pd=7.33 as=1.155 ps=7.33 w=7 l=1
X23 gnd.t342 commonsourceibias.t72 CSoutput.t130 gnd.t216 sky130_fd_pr__nfet_01v8 ad=1.155 pd=7.33 as=1.155 ps=7.33 w=7 l=1
X24 gnd.t349 commonsourceibias.t73 CSoutput.t129 gnd.t257 sky130_fd_pr__nfet_01v8 ad=2.73 pd=14.78 as=1.155 ps=7.33 w=7 l=1
X25 vdd.t5 CSoutput.t145 output.t15 gnd.t196 sky130_fd_pr__nfet_01v8_lvt ad=0.825 pd=5.33 as=0.825 ps=5.33 w=5 l=1
X26 commonsourceibias.t1 commonsourceibias.t0 gnd.t348 gnd.t199 sky130_fd_pr__nfet_01v8 ad=1.155 pd=7.33 as=1.155 ps=7.33 w=7 l=1
X27 CSoutput.t128 commonsourceibias.t74 gnd.t347 gnd.t292 sky130_fd_pr__nfet_01v8 ad=1.155 pd=7.33 as=1.155 ps=7.33 w=7 l=1
X28 a_n1986_8322.t19 a_n1986_13878.t50 a_n5644_8799.t34 vdd.t191 sky130_fd_pr__pfet_01v8_lvt ad=1.485 pd=9.33 as=1.485 ps=9.33 w=9 l=0.5
X29 CSoutput.t127 commonsourceibias.t75 gnd.t346 gnd.t203 sky130_fd_pr__nfet_01v8 ad=1.155 pd=7.33 as=1.155 ps=7.33 w=7 l=1
X30 gnd.t135 gnd.t132 gnd.t134 gnd.t133 sky130_fd_pr__nfet_01v8_lvt ad=1.95 pd=10.78 as=0 ps=0 w=5 l=1
X31 CSoutput.t146 a_n1986_8322.t0 sky130_fd_pr__cap_mim_m3_1 l=12 w=12
X32 CSoutput.t126 commonsourceibias.t76 gnd.t345 gnd.t249 sky130_fd_pr__nfet_01v8 ad=1.155 pd=7.33 as=1.155 ps=7.33 w=7 l=1
X33 gnd.t344 commonsourceibias.t77 CSoutput.t125 gnd.t267 sky130_fd_pr__nfet_01v8 ad=1.155 pd=7.33 as=1.155 ps=7.33 w=7 l=1
X34 CSoutput.t124 commonsourceibias.t78 gnd.t343 gnd.t238 sky130_fd_pr__nfet_01v8 ad=1.155 pd=7.33 as=1.155 ps=7.33 w=7 l=1
X35 CSoutput.t123 commonsourceibias.t79 gnd.t340 gnd.t287 sky130_fd_pr__nfet_01v8 ad=1.155 pd=7.33 as=1.155 ps=7.33 w=7 l=1
X36 a_n5644_8799.t29 plus.t6 a_n2903_n3924.t51 gnd.t147 sky130_fd_pr__nfet_01v8 ad=1.155 pd=7.33 as=1.155 ps=7.33 w=7 l=0.5
X37 gnd.t131 gnd.t129 gnd.t130 gnd.t59 sky130_fd_pr__nfet_01v8 ad=2.73 pd=14.78 as=0 ps=0 w=7 l=1
X38 gnd.t128 gnd.t126 gnd.t127 gnd.t55 sky130_fd_pr__nfet_01v8 ad=2.73 pd=14.78 as=0 ps=0 w=7 l=1
X39 CSoutput.t143 a_n5644_8799.t38 vdd.t175 vdd.t133 sky130_fd_pr__pfet_01v8_lvt ad=1.32 pd=8.33 as=3.12 ps=16.78 w=8 l=0.5
X40 vdd.t174 a_n5644_8799.t39 CSoutput.t1 vdd.t151 sky130_fd_pr__pfet_01v8_lvt ad=3.12 pd=16.78 as=1.32 ps=8.33 w=8 l=0.5
X41 CSoutput.t122 commonsourceibias.t80 gnd.t339 gnd.t261 sky130_fd_pr__nfet_01v8 ad=1.155 pd=7.33 as=1.155 ps=7.33 w=7 l=1
X42 a_n5644_8799.t35 a_n1986_13878.t51 a_n1986_8322.t20 vdd.t113 sky130_fd_pr__pfet_01v8_lvt ad=1.485 pd=9.33 as=3.51 ps=18.78 w=9 l=0.5
X43 CSoutput.t25 a_n5644_8799.t40 vdd.t173 vdd.t114 sky130_fd_pr__pfet_01v8_lvt ad=1.32 pd=8.33 as=3.12 ps=16.78 w=8 l=0.5
X44 vdd.t172 a_n5644_8799.t41 CSoutput.t141 vdd.t167 sky130_fd_pr__pfet_01v8_lvt ad=1.32 pd=8.33 as=1.32 ps=8.33 w=8 l=0.5
X45 a_n2903_n3924.t27 minus.t5 a_n1986_13878.t31 gnd.t160 sky130_fd_pr__nfet_01v8 ad=1.155 pd=7.33 as=1.155 ps=7.33 w=7 l=0.5
X46 gnd.t338 commonsourceibias.t81 CSoutput.t121 gnd.t201 sky130_fd_pr__nfet_01v8 ad=1.155 pd=7.33 as=1.155 ps=7.33 w=7 l=1
X47 a_n2903_n3924.t53 diffpairibias.t16 gnd.t358 gnd.t357 sky130_fd_pr__nfet_01v8 ad=2.73 pd=14.78 as=2.73 ps=14.78 w=7 l=1
X48 a_n1986_13878.t2 minus.t6 a_n2903_n3924.t26 gnd.t23 sky130_fd_pr__nfet_01v8 ad=1.155 pd=7.33 as=1.155 ps=7.33 w=7 l=0.5
X49 a_n2903_n3924.t50 plus.t7 a_n5644_8799.t25 gnd.t176 sky130_fd_pr__nfet_01v8 ad=1.155 pd=7.33 as=1.155 ps=7.33 w=7 l=0.5
X50 CSoutput.t120 commonsourceibias.t82 gnd.t337 gnd.t224 sky130_fd_pr__nfet_01v8 ad=1.155 pd=7.33 as=2.73 ps=14.78 w=7 l=1
X51 gnd.t336 commonsourceibias.t14 commonsourceibias.t15 gnd.t235 sky130_fd_pr__nfet_01v8 ad=1.155 pd=7.33 as=1.155 ps=7.33 w=7 l=1
X52 a_n2903_n3924.t49 plus.t8 a_n5644_8799.t20 gnd.t186 sky130_fd_pr__nfet_01v8 ad=1.155 pd=7.33 as=1.155 ps=7.33 w=7 l=0.5
X53 a_n2903_n3924.t25 minus.t7 a_n1986_13878.t43 gnd.t178 sky130_fd_pr__nfet_01v8 ad=1.155 pd=7.33 as=1.155 ps=7.33 w=7 l=0.5
X54 output.t18 outputibias.t8 gnd.t170 gnd.t169 sky130_fd_pr__nfet_01v8 ad=2.34 pd=12.78 as=2.34 ps=12.78 w=6 l=2
X55 CSoutput.t119 commonsourceibias.t83 gnd.t335 gnd.t261 sky130_fd_pr__nfet_01v8 ad=1.155 pd=7.33 as=1.155 ps=7.33 w=7 l=1
X56 CSoutput.t35 a_n5644_8799.t42 vdd.t171 vdd.t129 sky130_fd_pr__pfet_01v8_lvt ad=1.32 pd=8.33 as=1.32 ps=8.33 w=8 l=0.5
X57 vdd.t105 vdd.t103 vdd.t104 vdd.t37 sky130_fd_pr__pfet_01v8_lvt ad=3.12 pd=16.78 as=0 ps=0 w=8 l=0.5
X58 gnd.t334 commonsourceibias.t84 CSoutput.t118 gnd.t282 sky130_fd_pr__nfet_01v8 ad=1.155 pd=7.33 as=1.155 ps=7.33 w=7 l=1
X59 CSoutput.t117 commonsourceibias.t85 gnd.t333 gnd.t246 sky130_fd_pr__nfet_01v8 ad=1.155 pd=7.33 as=1.155 ps=7.33 w=7 l=1
X60 CSoutput.t116 commonsourceibias.t86 gnd.t330 gnd.t212 sky130_fd_pr__nfet_01v8 ad=1.155 pd=7.33 as=1.155 ps=7.33 w=7 l=1
X61 gnd.t332 commonsourceibias.t87 CSoutput.t115 gnd.t282 sky130_fd_pr__nfet_01v8 ad=1.155 pd=7.33 as=1.155 ps=7.33 w=7 l=1
X62 output.t14 CSoutput.t147 vdd.t1 gnd.t16 sky130_fd_pr__nfet_01v8_lvt ad=0.825 pd=5.33 as=0.825 ps=5.33 w=5 l=1
X63 gnd.t331 commonsourceibias.t88 CSoutput.t114 gnd.t278 sky130_fd_pr__nfet_01v8 ad=1.155 pd=7.33 as=1.155 ps=7.33 w=7 l=1
X64 CSoutput.t113 commonsourceibias.t89 gnd.t329 gnd.t246 sky130_fd_pr__nfet_01v8 ad=1.155 pd=7.33 as=1.155 ps=7.33 w=7 l=1
X65 a_n2903_n3924.t24 minus.t8 a_n1986_13878.t42 gnd.t190 sky130_fd_pr__nfet_01v8 ad=1.155 pd=7.33 as=1.155 ps=7.33 w=7 l=0.5
X66 gnd.t125 gnd.t123 gnd.t124 gnd.t59 sky130_fd_pr__nfet_01v8 ad=2.73 pd=14.78 as=0 ps=0 w=7 l=1
X67 CSoutput.t112 commonsourceibias.t90 gnd.t322 gnd.t276 sky130_fd_pr__nfet_01v8 ad=1.155 pd=7.33 as=1.155 ps=7.33 w=7 l=1
X68 gnd.t328 commonsourceibias.t12 commonsourceibias.t13 gnd.t205 sky130_fd_pr__nfet_01v8 ad=1.155 pd=7.33 as=1.155 ps=7.33 w=7 l=1
X69 a_n1808_13878.t16 a_n1986_13878.t14 a_n1986_13878.t15 vdd.t189 sky130_fd_pr__pfet_01v8_lvt ad=1.485 pd=9.33 as=3.51 ps=18.78 w=9 l=0.5
X70 vdd.t170 a_n5644_8799.t43 CSoutput.t8 vdd.t167 sky130_fd_pr__pfet_01v8_lvt ad=1.32 pd=8.33 as=1.32 ps=8.33 w=8 l=0.5
X71 diffpairibias.t15 diffpairibias.t14 gnd.t159 gnd.t158 sky130_fd_pr__nfet_01v8 ad=2.73 pd=14.78 as=2.73 ps=14.78 w=7 l=1
X72 a_n1986_13878.t5 a_n1986_13878.t4 a_n1808_13878.t15 vdd.t30 sky130_fd_pr__pfet_01v8_lvt ad=1.485 pd=9.33 as=1.485 ps=9.33 w=9 l=0.5
X73 CSoutput.t28 a_n5644_8799.t44 vdd.t169 vdd.t145 sky130_fd_pr__pfet_01v8_lvt ad=1.32 pd=8.33 as=1.32 ps=8.33 w=8 l=0.5
X74 gnd.t321 commonsourceibias.t91 CSoutput.t111 gnd.t218 sky130_fd_pr__nfet_01v8 ad=1.155 pd=7.33 as=1.155 ps=7.33 w=7 l=1
X75 CSoutput.t110 commonsourceibias.t92 gnd.t327 gnd.t259 sky130_fd_pr__nfet_01v8 ad=1.155 pd=7.33 as=1.155 ps=7.33 w=7 l=1
X76 CSoutput.t109 commonsourceibias.t93 gnd.t324 gnd.t224 sky130_fd_pr__nfet_01v8 ad=1.155 pd=7.33 as=2.73 ps=14.78 w=7 l=1
X77 vdd.t102 vdd.t100 vdd.t101 vdd.t69 sky130_fd_pr__pfet_01v8_lvt ad=3.51 pd=18.78 as=0 ps=0 w=9 l=0.5
X78 gnd.t122 gnd.t120 plus.t3 gnd.t121 sky130_fd_pr__nfet_01v8 ad=0.165 pd=1.33 as=0.39 ps=2.78 w=1 l=0.5
X79 gnd.t326 commonsourceibias.t94 CSoutput.t108 gnd.t241 sky130_fd_pr__nfet_01v8 ad=1.155 pd=7.33 as=1.155 ps=7.33 w=7 l=1
X80 a_n1986_13878.t41 minus.t9 a_n2903_n3924.t23 gnd.t191 sky130_fd_pr__nfet_01v8 ad=1.155 pd=7.33 as=2.73 ps=14.78 w=7 l=0.5
X81 gnd.t323 commonsourceibias.t95 CSoutput.t107 gnd.t214 sky130_fd_pr__nfet_01v8 ad=1.155 pd=7.33 as=1.155 ps=7.33 w=7 l=1
X82 CSoutput.t106 commonsourceibias.t96 gnd.t325 gnd.t259 sky130_fd_pr__nfet_01v8 ad=1.155 pd=7.33 as=1.155 ps=7.33 w=7 l=1
X83 diffpairibias.t13 diffpairibias.t12 gnd.t22 gnd.t21 sky130_fd_pr__nfet_01v8 ad=2.73 pd=14.78 as=2.73 ps=14.78 w=7 l=1
X84 gnd.t320 commonsourceibias.t16 commonsourceibias.t17 gnd.t243 sky130_fd_pr__nfet_01v8 ad=1.155 pd=7.33 as=1.155 ps=7.33 w=7 l=1
X85 vdd.t99 vdd.t97 vdd.t98 vdd.t48 sky130_fd_pr__pfet_01v8_lvt ad=3.12 pd=16.78 as=0 ps=0 w=8 l=0.5
X86 CSoutput.t105 commonsourceibias.t97 gnd.t319 gnd.t229 sky130_fd_pr__nfet_01v8 ad=1.155 pd=7.33 as=1.155 ps=7.33 w=7 l=1
X87 CSoutput.t104 commonsourceibias.t98 gnd.t318 gnd.t292 sky130_fd_pr__nfet_01v8 ad=1.155 pd=7.33 as=1.155 ps=7.33 w=7 l=1
X88 gnd.t119 gnd.t117 gnd.t118 gnd.t51 sky130_fd_pr__nfet_01v8 ad=2.73 pd=14.78 as=0 ps=0 w=7 l=1
X89 gnd.t317 commonsourceibias.t99 CSoutput.t103 gnd.t257 sky130_fd_pr__nfet_01v8 ad=2.73 pd=14.78 as=1.155 ps=7.33 w=7 l=1
X90 CSoutput.t102 commonsourceibias.t100 gnd.t316 gnd.t212 sky130_fd_pr__nfet_01v8 ad=1.155 pd=7.33 as=1.155 ps=7.33 w=7 l=1
X91 gnd.t315 commonsourceibias.t101 CSoutput.t101 gnd.t243 sky130_fd_pr__nfet_01v8 ad=1.155 pd=7.33 as=1.155 ps=7.33 w=7 l=1
X92 vdd.t168 a_n5644_8799.t45 CSoutput.t7 vdd.t167 sky130_fd_pr__pfet_01v8_lvt ad=1.32 pd=8.33 as=1.32 ps=8.33 w=8 l=0.5
X93 gnd.t314 commonsourceibias.t102 CSoutput.t100 gnd.t267 sky130_fd_pr__nfet_01v8 ad=1.155 pd=7.33 as=1.155 ps=7.33 w=7 l=1
X94 output.t13 CSoutput.t148 vdd.t7 gnd.t17 sky130_fd_pr__nfet_01v8_lvt ad=0.825 pd=5.33 as=0.825 ps=5.33 w=5 l=1
X95 vdd.t166 a_n5644_8799.t46 CSoutput.t15 vdd.t142 sky130_fd_pr__pfet_01v8_lvt ad=1.32 pd=8.33 as=1.32 ps=8.33 w=8 l=0.5
X96 CSoutput.t16 a_n5644_8799.t47 vdd.t165 vdd.t114 sky130_fd_pr__pfet_01v8_lvt ad=1.32 pd=8.33 as=3.12 ps=16.78 w=8 l=0.5
X97 plus.t2 gnd.t114 gnd.t116 gnd.t115 sky130_fd_pr__nfet_01v8 ad=0.165 pd=1.33 as=0.165 ps=1.33 w=1 l=0.5
X98 CSoutput.t149 a_n1986_8322.t0 sky130_fd_pr__cap_mim_m3_1 l=12 w=12
X99 gnd.t313 commonsourceibias.t46 commonsourceibias.t47 gnd.t226 sky130_fd_pr__nfet_01v8 ad=1.155 pd=7.33 as=1.155 ps=7.33 w=7 l=1
X100 vdd.t164 a_n5644_8799.t48 CSoutput.t26 vdd.t118 sky130_fd_pr__pfet_01v8_lvt ad=1.32 pd=8.33 as=1.32 ps=8.33 w=8 l=0.5
X101 a_n5644_8799.t16 plus.t9 a_n2903_n3924.t48 gnd.t185 sky130_fd_pr__nfet_01v8 ad=1.155 pd=7.33 as=1.155 ps=7.33 w=7 l=0.5
X102 gnd.t312 commonsourceibias.t103 CSoutput.t99 gnd.t243 sky130_fd_pr__nfet_01v8 ad=1.155 pd=7.33 as=1.155 ps=7.33 w=7 l=1
X103 CSoutput.t2 a_n5644_8799.t49 vdd.t163 vdd.t129 sky130_fd_pr__pfet_01v8_lvt ad=1.32 pd=8.33 as=1.32 ps=8.33 w=8 l=0.5
X104 CSoutput.t6 a_n5644_8799.t50 vdd.t162 vdd.t155 sky130_fd_pr__pfet_01v8_lvt ad=1.32 pd=8.33 as=1.32 ps=8.33 w=8 l=0.5
X105 vdd.t10 CSoutput.t150 output.t12 gnd.t18 sky130_fd_pr__nfet_01v8_lvt ad=0.825 pd=5.33 as=0.825 ps=5.33 w=5 l=1
X106 output.t11 CSoutput.t151 vdd.t13 gnd.t19 sky130_fd_pr__nfet_01v8_lvt ad=0.825 pd=5.33 as=0.825 ps=5.33 w=5 l=1
X107 a_n2903_n3924.t28 diffpairibias.t17 gnd.t180 gnd.t179 sky130_fd_pr__nfet_01v8 ad=2.73 pd=14.78 as=2.73 ps=14.78 w=7 l=1
X108 CSoutput.t41 a_n5644_8799.t51 vdd.t161 vdd.t155 sky130_fd_pr__pfet_01v8_lvt ad=1.32 pd=8.33 as=1.32 ps=8.33 w=8 l=0.5
X109 a_n2903_n3924.t22 minus.t10 a_n1986_13878.t1 gnd.t8 sky130_fd_pr__nfet_01v8 ad=1.155 pd=7.33 as=1.155 ps=7.33 w=7 l=0.5
X110 gnd.t311 commonsourceibias.t104 CSoutput.t98 gnd.t201 sky130_fd_pr__nfet_01v8 ad=1.155 pd=7.33 as=1.155 ps=7.33 w=7 l=1
X111 gnd.t113 gnd.t111 gnd.t112 gnd.t47 sky130_fd_pr__nfet_01v8 ad=2.73 pd=14.78 as=0 ps=0 w=7 l=1
X112 vdd.t160 a_n5644_8799.t52 CSoutput.t21 vdd.t153 sky130_fd_pr__pfet_01v8_lvt ad=1.32 pd=8.33 as=1.32 ps=8.33 w=8 l=0.5
X113 gnd.t110 gnd.t108 gnd.t109 gnd.t47 sky130_fd_pr__nfet_01v8 ad=2.73 pd=14.78 as=0 ps=0 w=7 l=1
X114 a_n2903_n3924.t47 plus.t10 a_n5644_8799.t22 gnd.t5 sky130_fd_pr__nfet_01v8 ad=1.155 pd=7.33 as=1.155 ps=7.33 w=7 l=0.5
X115 a_n1986_13878.t38 minus.t11 a_n2903_n3924.t21 gnd.t183 sky130_fd_pr__nfet_01v8 ad=1.155 pd=7.33 as=1.155 ps=7.33 w=7 l=0.5
X116 CSoutput.t97 commonsourceibias.t105 gnd.t310 gnd.t249 sky130_fd_pr__nfet_01v8 ad=1.155 pd=7.33 as=1.155 ps=7.33 w=7 l=1
X117 a_n1986_13878.t19 a_n1986_13878.t18 a_n1808_13878.t14 vdd.t191 sky130_fd_pr__pfet_01v8_lvt ad=1.485 pd=9.33 as=1.485 ps=9.33 w=9 l=0.5
X118 a_n1986_13878.t7 a_n1986_13878.t6 a_n1808_13878.t13 vdd.t180 sky130_fd_pr__pfet_01v8_lvt ad=3.51 pd=18.78 as=1.485 ps=9.33 w=9 l=0.5
X119 vdd.t159 a_n5644_8799.t53 CSoutput.t17 vdd.t151 sky130_fd_pr__pfet_01v8_lvt ad=3.12 pd=16.78 as=1.32 ps=8.33 w=8 l=0.5
X120 a_n5644_8799.t33 a_n1986_13878.t52 a_n1986_8322.t17 vdd.t190 sky130_fd_pr__pfet_01v8_lvt ad=1.485 pd=9.33 as=1.485 ps=9.33 w=9 l=0.5
X121 gnd.t309 commonsourceibias.t106 CSoutput.t96 gnd.t209 sky130_fd_pr__nfet_01v8 ad=1.155 pd=7.33 as=1.155 ps=7.33 w=7 l=1
X122 vdd.t158 a_n5644_8799.t54 CSoutput.t24 vdd.t153 sky130_fd_pr__pfet_01v8_lvt ad=1.32 pd=8.33 as=1.32 ps=8.33 w=8 l=0.5
X123 a_n2903_n3924.t20 minus.t12 a_n1986_13878.t45 gnd.t184 sky130_fd_pr__nfet_01v8 ad=2.73 pd=14.78 as=1.155 ps=7.33 w=7 l=0.5
X124 gnd.t308 commonsourceibias.t107 CSoutput.t95 gnd.t235 sky130_fd_pr__nfet_01v8 ad=1.155 pd=7.33 as=1.155 ps=7.33 w=7 l=1
X125 gnd.t307 commonsourceibias.t44 commonsourceibias.t45 gnd.t216 sky130_fd_pr__nfet_01v8 ad=1.155 pd=7.33 as=1.155 ps=7.33 w=7 l=1
X126 output.t16 outputibias.t9 gnd.t4 gnd.t3 sky130_fd_pr__nfet_01v8 ad=2.34 pd=12.78 as=2.34 ps=12.78 w=6 l=2
X127 vdd.t96 vdd.t94 vdd.t95 vdd.t48 sky130_fd_pr__pfet_01v8_lvt ad=3.12 pd=16.78 as=0 ps=0 w=8 l=0.5
X128 output.t10 CSoutput.t152 vdd.t0 gnd.t20 sky130_fd_pr__nfet_01v8_lvt ad=0.825 pd=5.33 as=0.825 ps=5.33 w=5 l=1
X129 CSoutput.t153 a_n1986_8322.t0 sky130_fd_pr__cap_mim_m3_1 l=12 w=12
X130 vdd.t157 a_n5644_8799.t55 CSoutput.t19 vdd.t142 sky130_fd_pr__pfet_01v8_lvt ad=1.32 pd=8.33 as=1.32 ps=8.33 w=8 l=0.5
X131 vdd.t93 vdd.t91 vdd.t92 vdd.t77 sky130_fd_pr__pfet_01v8_lvt ad=3.51 pd=18.78 as=0 ps=0 w=9 l=0.5
X132 vdd.t90 vdd.t87 vdd.t89 vdd.t88 sky130_fd_pr__pfet_01v8_lvt ad=3.51 pd=18.78 as=0 ps=0 w=9 l=0.5
X133 CSoutput.t94 commonsourceibias.t108 gnd.t306 gnd.t197 sky130_fd_pr__nfet_01v8 ad=1.155 pd=7.33 as=2.73 ps=14.78 w=7 l=1
X134 gnd.t305 commonsourceibias.t109 CSoutput.t93 gnd.t226 sky130_fd_pr__nfet_01v8 ad=1.155 pd=7.33 as=1.155 ps=7.33 w=7 l=1
X135 a_n1986_13878.t30 minus.t13 a_n2903_n3924.t19 gnd.t155 sky130_fd_pr__nfet_01v8 ad=1.155 pd=7.33 as=1.155 ps=7.33 w=7 l=0.5
X136 CSoutput.t92 commonsourceibias.t110 gnd.t304 gnd.t292 sky130_fd_pr__nfet_01v8 ad=1.155 pd=7.33 as=1.155 ps=7.33 w=7 l=1
X137 gnd.t303 commonsourceibias.t111 CSoutput.t91 gnd.t282 sky130_fd_pr__nfet_01v8 ad=1.155 pd=7.33 as=1.155 ps=7.33 w=7 l=1
X138 gnd.t107 gnd.t104 gnd.t106 gnd.t105 sky130_fd_pr__nfet_01v8_lvt ad=1.95 pd=10.78 as=0 ps=0 w=5 l=1
X139 a_n2903_n3924.t1 diffpairibias.t18 gnd.t151 gnd.t150 sky130_fd_pr__nfet_01v8 ad=2.73 pd=14.78 as=2.73 ps=14.78 w=7 l=1
X140 gnd.t302 commonsourceibias.t112 CSoutput.t90 gnd.t257 sky130_fd_pr__nfet_01v8 ad=2.73 pd=14.78 as=1.155 ps=7.33 w=7 l=1
X141 gnd.t301 commonsourceibias.t22 commonsourceibias.t23 gnd.t218 sky130_fd_pr__nfet_01v8 ad=1.155 pd=7.33 as=1.155 ps=7.33 w=7 l=1
X142 vdd.t86 vdd.t83 vdd.t85 vdd.t84 sky130_fd_pr__pfet_01v8_lvt ad=3.51 pd=18.78 as=0 ps=0 w=9 l=0.5
X143 CSoutput.t89 commonsourceibias.t113 gnd.t300 gnd.t287 sky130_fd_pr__nfet_01v8 ad=1.155 pd=7.33 as=1.155 ps=7.33 w=7 l=1
X144 output.t9 CSoutput.t154 vdd.t12 gnd.t171 sky130_fd_pr__nfet_01v8_lvt ad=0.825 pd=5.33 as=0.825 ps=5.33 w=5 l=1
X145 CSoutput.t155 a_n1986_8322.t0 sky130_fd_pr__cap_mim_m3_1 l=12 w=12
X146 vdd.t199 a_n1986_13878.t53 a_n1986_8322.t18 vdd.t198 sky130_fd_pr__pfet_01v8_lvt ad=1.485 pd=9.33 as=1.485 ps=9.33 w=9 l=0.5
X147 vdd.t82 vdd.t80 vdd.t81 vdd.t73 sky130_fd_pr__pfet_01v8_lvt ad=3.51 pd=18.78 as=0 ps=0 w=9 l=0.5
X148 gnd.t103 gnd.t101 minus.t3 gnd.t102 sky130_fd_pr__nfet_01v8 ad=0.165 pd=1.33 as=0.39 ps=2.78 w=1 l=0.5
X149 a_n2903_n3924.t46 plus.t11 a_n5644_8799.t24 gnd.t175 sky130_fd_pr__nfet_01v8 ad=1.155 pd=7.33 as=1.155 ps=7.33 w=7 l=0.5
X150 CSoutput.t39 a_n5644_8799.t56 vdd.t156 vdd.t155 sky130_fd_pr__pfet_01v8_lvt ad=1.32 pd=8.33 as=1.32 ps=8.33 w=8 l=0.5
X151 a_n1986_8322.t10 a_n1986_13878.t54 vdd.t183 vdd.t182 sky130_fd_pr__pfet_01v8_lvt ad=1.485 pd=9.33 as=1.485 ps=9.33 w=9 l=0.5
X152 vdd.t154 a_n5644_8799.t57 CSoutput.t12 vdd.t153 sky130_fd_pr__pfet_01v8_lvt ad=1.32 pd=8.33 as=1.32 ps=8.33 w=8 l=0.5
X153 gnd.t100 gnd.t98 gnd.t99 gnd.t47 sky130_fd_pr__nfet_01v8 ad=2.73 pd=14.78 as=0 ps=0 w=7 l=1
X154 vdd.t185 a_n1986_13878.t55 a_n1808_13878.t6 vdd.t184 sky130_fd_pr__pfet_01v8_lvt ad=1.485 pd=9.33 as=1.485 ps=9.33 w=9 l=0.5
X155 a_n1986_13878.t47 minus.t14 a_n2903_n3924.t18 gnd.t193 sky130_fd_pr__nfet_01v8 ad=1.155 pd=7.33 as=1.155 ps=7.33 w=7 l=0.5
X156 a_n5644_8799.t28 plus.t12 a_n2903_n3924.t45 gnd.t165 sky130_fd_pr__nfet_01v8 ad=1.155 pd=7.33 as=2.73 ps=14.78 w=7 l=0.5
X157 vdd.t79 vdd.t76 vdd.t78 vdd.t77 sky130_fd_pr__pfet_01v8_lvt ad=3.51 pd=18.78 as=0 ps=0 w=9 l=0.5
X158 diffpairibias.t11 diffpairibias.t10 gnd.t25 gnd.t24 sky130_fd_pr__nfet_01v8 ad=2.73 pd=14.78 as=2.73 ps=14.78 w=7 l=1
X159 vdd.t75 vdd.t72 vdd.t74 vdd.t73 sky130_fd_pr__pfet_01v8_lvt ad=3.51 pd=18.78 as=0 ps=0 w=9 l=0.5
X160 vdd.t152 a_n5644_8799.t58 CSoutput.t4 vdd.t151 sky130_fd_pr__pfet_01v8_lvt ad=3.12 pd=16.78 as=1.32 ps=8.33 w=8 l=0.5
X161 CSoutput.t88 commonsourceibias.t114 gnd.t299 gnd.t252 sky130_fd_pr__nfet_01v8 ad=1.155 pd=7.33 as=1.155 ps=7.33 w=7 l=1
X162 gnd.t298 commonsourceibias.t115 CSoutput.t87 gnd.t278 sky130_fd_pr__nfet_01v8 ad=1.155 pd=7.33 as=1.155 ps=7.33 w=7 l=1
X163 commonsourceibias.t21 commonsourceibias.t20 gnd.t297 gnd.t203 sky130_fd_pr__nfet_01v8 ad=1.155 pd=7.33 as=1.155 ps=7.33 w=7 l=1
X164 a_n5644_8799.t32 a_n1986_13878.t56 a_n1986_8322.t15 vdd.t112 sky130_fd_pr__pfet_01v8_lvt ad=1.485 pd=9.33 as=1.485 ps=9.33 w=9 l=0.5
X165 a_n1986_8322.t16 a_n1986_13878.t57 vdd.t197 vdd.t196 sky130_fd_pr__pfet_01v8_lvt ad=3.51 pd=18.78 as=1.485 ps=9.33 w=9 l=0.5
X166 vdd.t71 vdd.t68 vdd.t70 vdd.t69 sky130_fd_pr__pfet_01v8_lvt ad=3.51 pd=18.78 as=0 ps=0 w=9 l=0.5
X167 CSoutput.t86 commonsourceibias.t116 gnd.t296 gnd.t249 sky130_fd_pr__nfet_01v8 ad=1.155 pd=7.33 as=1.155 ps=7.33 w=7 l=1
X168 vdd.t4 CSoutput.t156 output.t8 gnd.t9 sky130_fd_pr__nfet_01v8_lvt ad=0.825 pd=5.33 as=0.825 ps=5.33 w=5 l=1
X169 a_n1986_13878.t25 a_n1986_13878.t24 a_n1808_13878.t12 vdd.t23 sky130_fd_pr__pfet_01v8_lvt ad=1.485 pd=9.33 as=1.485 ps=9.33 w=9 l=0.5
X170 a_n2903_n3924.t17 minus.t15 a_n1986_13878.t3 gnd.t27 sky130_fd_pr__nfet_01v8 ad=2.73 pd=14.78 as=1.155 ps=7.33 w=7 l=0.5
X171 a_n2903_n3924.t16 minus.t16 a_n1986_13878.t44 gnd.t187 sky130_fd_pr__nfet_01v8 ad=1.155 pd=7.33 as=1.155 ps=7.33 w=7 l=0.5
X172 a_n5644_8799.t30 plus.t13 a_n2903_n3924.t44 gnd.t192 sky130_fd_pr__nfet_01v8 ad=1.155 pd=7.33 as=1.155 ps=7.33 w=7 l=0.5
X173 a_n5644_8799.t4 a_n1986_13878.t58 a_n1986_8322.t7 vdd.t33 sky130_fd_pr__pfet_01v8_lvt ad=1.485 pd=9.33 as=1.485 ps=9.33 w=9 l=0.5
X174 gnd.t97 gnd.t95 gnd.t96 gnd.t55 sky130_fd_pr__nfet_01v8 ad=2.73 pd=14.78 as=0 ps=0 w=7 l=1
X175 CSoutput.t85 commonsourceibias.t117 gnd.t295 gnd.t246 sky130_fd_pr__nfet_01v8 ad=1.155 pd=7.33 as=1.155 ps=7.33 w=7 l=1
X176 a_n1986_13878.t29 minus.t17 a_n2903_n3924.t15 gnd.t152 sky130_fd_pr__nfet_01v8 ad=1.155 pd=7.33 as=1.155 ps=7.33 w=7 l=0.5
X177 a_n1808_13878.t11 a_n1986_13878.t10 a_n1986_13878.t11 vdd.t190 sky130_fd_pr__pfet_01v8_lvt ad=1.485 pd=9.33 as=1.485 ps=9.33 w=9 l=0.5
X178 gnd.t290 commonsourceibias.t118 CSoutput.t84 gnd.t267 sky130_fd_pr__nfet_01v8 ad=1.155 pd=7.33 as=1.155 ps=7.33 w=7 l=1
X179 gnd.t294 commonsourceibias.t119 CSoutput.t83 gnd.t241 sky130_fd_pr__nfet_01v8 ad=1.155 pd=7.33 as=1.155 ps=7.33 w=7 l=1
X180 outputibias.t7 outputibias.t6 gnd.t364 gnd.t363 sky130_fd_pr__nfet_01v8 ad=2.34 pd=12.78 as=2.34 ps=12.78 w=6 l=2
X181 vdd.t14 CSoutput.t157 output.t7 gnd.t10 sky130_fd_pr__nfet_01v8_lvt ad=0.825 pd=5.33 as=0.825 ps=5.33 w=5 l=1
X182 commonsourceibias.t19 commonsourceibias.t18 gnd.t293 gnd.t292 sky130_fd_pr__nfet_01v8 ad=1.155 pd=7.33 as=1.155 ps=7.33 w=7 l=1
X183 gnd.t291 commonsourceibias.t120 CSoutput.t82 gnd.t231 sky130_fd_pr__nfet_01v8 ad=2.73 pd=14.78 as=1.155 ps=7.33 w=7 l=1
X184 outputibias.t5 outputibias.t4 gnd.t154 gnd.t153 sky130_fd_pr__nfet_01v8 ad=2.34 pd=12.78 as=2.34 ps=12.78 w=6 l=2
X185 vdd.t35 a_n1986_13878.t59 a_n1986_8322.t8 vdd.t34 sky130_fd_pr__pfet_01v8_lvt ad=1.485 pd=9.33 as=3.51 ps=18.78 w=9 l=0.5
X186 CSoutput.t81 commonsourceibias.t121 gnd.t289 gnd.t238 sky130_fd_pr__nfet_01v8 ad=1.155 pd=7.33 as=1.155 ps=7.33 w=7 l=1
X187 vdd.t67 vdd.t65 vdd.t66 vdd.t59 sky130_fd_pr__pfet_01v8_lvt ad=3.12 pd=16.78 as=0 ps=0 w=8 l=0.5
X188 gnd.t38 gnd.t35 gnd.t37 gnd.t36 sky130_fd_pr__nfet_01v8 ad=2.73 pd=14.78 as=0 ps=0 w=7 l=1
X189 a_n2903_n3924.t55 diffpairibias.t19 gnd.t366 gnd.t365 sky130_fd_pr__nfet_01v8 ad=2.73 pd=14.78 as=2.73 ps=14.78 w=7 l=1
X190 CSoutput.t13 a_n5644_8799.t59 vdd.t150 vdd.t145 sky130_fd_pr__pfet_01v8_lvt ad=1.32 pd=8.33 as=1.32 ps=8.33 w=8 l=0.5
X191 a_n1986_13878.t34 minus.t18 a_n2903_n3924.t14 gnd.t2 sky130_fd_pr__nfet_01v8 ad=1.155 pd=7.33 as=1.155 ps=7.33 w=7 l=0.5
X192 a_n2903_n3924.t0 diffpairibias.t20 gnd.t149 gnd.t148 sky130_fd_pr__nfet_01v8 ad=2.73 pd=14.78 as=2.73 ps=14.78 w=7 l=1
X193 commonsourceibias.t57 commonsourceibias.t56 gnd.t288 gnd.t287 sky130_fd_pr__nfet_01v8 ad=1.155 pd=7.33 as=1.155 ps=7.33 w=7 l=1
X194 vdd.t149 a_n5644_8799.t60 CSoutput.t42 vdd.t116 sky130_fd_pr__pfet_01v8_lvt ad=3.12 pd=16.78 as=1.32 ps=8.33 w=8 l=0.5
X195 gnd.t94 gnd.t92 gnd.t93 gnd.t59 sky130_fd_pr__nfet_01v8 ad=2.73 pd=14.78 as=0 ps=0 w=7 l=1
X196 gnd.t91 gnd.t89 gnd.t90 gnd.t55 sky130_fd_pr__nfet_01v8 ad=2.73 pd=14.78 as=0 ps=0 w=7 l=1
X197 gnd.t88 gnd.t86 minus.t2 gnd.t87 sky130_fd_pr__nfet_01v8 ad=0.165 pd=1.33 as=0.165 ps=1.33 w=1 l=0.5
X198 CSoutput.t80 commonsourceibias.t122 gnd.t286 gnd.t252 sky130_fd_pr__nfet_01v8 ad=1.155 pd=7.33 as=1.155 ps=7.33 w=7 l=1
X199 CSoutput.t79 commonsourceibias.t123 gnd.t285 gnd.t229 sky130_fd_pr__nfet_01v8 ad=1.155 pd=7.33 as=1.155 ps=7.33 w=7 l=1
X200 vdd.t148 a_n5644_8799.t61 CSoutput.t23 vdd.t131 sky130_fd_pr__pfet_01v8_lvt ad=1.32 pd=8.33 as=1.32 ps=8.33 w=8 l=0.5
X201 a_n1986_13878.t28 minus.t19 a_n2903_n3924.t13 gnd.t147 sky130_fd_pr__nfet_01v8 ad=1.155 pd=7.33 as=1.155 ps=7.33 w=7 l=0.5
X202 commonsourceibias.t55 commonsourceibias.t54 gnd.t284 gnd.t261 sky130_fd_pr__nfet_01v8 ad=1.155 pd=7.33 as=1.155 ps=7.33 w=7 l=1
X203 gnd.t283 commonsourceibias.t52 commonsourceibias.t53 gnd.t282 sky130_fd_pr__nfet_01v8 ad=1.155 pd=7.33 as=1.155 ps=7.33 w=7 l=1
X204 diffpairibias.t9 diffpairibias.t8 gnd.t189 gnd.t188 sky130_fd_pr__nfet_01v8 ad=2.73 pd=14.78 as=2.73 ps=14.78 w=7 l=1
X205 CSoutput.t78 commonsourceibias.t124 gnd.t281 gnd.t238 sky130_fd_pr__nfet_01v8 ad=1.155 pd=7.33 as=1.155 ps=7.33 w=7 l=1
X206 CSoutput.t77 commonsourceibias.t125 gnd.t280 gnd.t207 sky130_fd_pr__nfet_01v8 ad=1.155 pd=7.33 as=1.155 ps=7.33 w=7 l=1
X207 output.t6 CSoutput.t158 vdd.t8 gnd.t11 sky130_fd_pr__nfet_01v8_lvt ad=0.825 pd=5.33 as=0.825 ps=5.33 w=5 l=1
X208 a_n2903_n3924.t43 plus.t14 a_n5644_8799.t26 gnd.t160 sky130_fd_pr__nfet_01v8 ad=1.155 pd=7.33 as=1.155 ps=7.33 w=7 l=0.5
X209 gnd.t279 commonsourceibias.t50 commonsourceibias.t51 gnd.t278 sky130_fd_pr__nfet_01v8 ad=1.155 pd=7.33 as=1.155 ps=7.33 w=7 l=1
X210 CSoutput.t31 a_n5644_8799.t62 vdd.t147 vdd.t135 sky130_fd_pr__pfet_01v8_lvt ad=1.32 pd=8.33 as=1.32 ps=8.33 w=8 l=0.5
X211 commonsourceibias.t49 commonsourceibias.t48 gnd.t277 gnd.t276 sky130_fd_pr__nfet_01v8 ad=1.155 pd=7.33 as=1.155 ps=7.33 w=7 l=1
X212 outputibias.t3 outputibias.t2 gnd.t164 gnd.t163 sky130_fd_pr__nfet_01v8 ad=2.34 pd=12.78 as=2.34 ps=12.78 w=6 l=2
X213 vdd.t64 vdd.t62 vdd.t63 vdd.t44 sky130_fd_pr__pfet_01v8_lvt ad=3.12 pd=16.78 as=0 ps=0 w=8 l=0.5
X214 a_n1808_13878.t5 a_n1986_13878.t60 vdd.t25 vdd.t24 sky130_fd_pr__pfet_01v8_lvt ad=1.485 pd=9.33 as=1.485 ps=9.33 w=9 l=0.5
X215 vdd.t27 a_n1986_13878.t61 a_n1808_13878.t4 vdd.t26 sky130_fd_pr__pfet_01v8_lvt ad=1.485 pd=9.33 as=1.485 ps=9.33 w=9 l=0.5
X216 a_n2903_n3924.t12 minus.t20 a_n1986_13878.t39 gnd.t186 sky130_fd_pr__nfet_01v8 ad=1.155 pd=7.33 as=1.155 ps=7.33 w=7 l=0.5
X217 a_n2903_n3924.t42 plus.t15 a_n5644_8799.t9 gnd.t178 sky130_fd_pr__nfet_01v8 ad=1.155 pd=7.33 as=1.155 ps=7.33 w=7 l=0.5
X218 gnd.t275 commonsourceibias.t126 CSoutput.t76 gnd.t220 sky130_fd_pr__nfet_01v8 ad=1.155 pd=7.33 as=1.155 ps=7.33 w=7 l=1
X219 a_n5644_8799.t17 plus.t16 a_n2903_n3924.t41 gnd.t166 sky130_fd_pr__nfet_01v8 ad=1.155 pd=7.33 as=1.155 ps=7.33 w=7 l=0.5
X220 a_n2903_n3924.t11 minus.t21 a_n1986_13878.t37 gnd.t177 sky130_fd_pr__nfet_01v8 ad=1.155 pd=7.33 as=1.155 ps=7.33 w=7 l=0.5
X221 commonsourceibias.t35 commonsourceibias.t34 gnd.t274 gnd.t224 sky130_fd_pr__nfet_01v8 ad=1.155 pd=7.33 as=2.73 ps=14.78 w=7 l=1
X222 vdd.t61 vdd.t58 vdd.t60 vdd.t59 sky130_fd_pr__pfet_01v8_lvt ad=3.12 pd=16.78 as=0 ps=0 w=8 l=0.5
X223 gnd.t273 commonsourceibias.t32 commonsourceibias.t33 gnd.t214 sky130_fd_pr__nfet_01v8 ad=1.155 pd=7.33 as=1.155 ps=7.33 w=7 l=1
X224 diffpairibias.t7 diffpairibias.t6 gnd.t195 gnd.t194 sky130_fd_pr__nfet_01v8 ad=2.73 pd=14.78 as=2.73 ps=14.78 w=7 l=1
X225 CSoutput.t75 commonsourceibias.t127 gnd.t272 gnd.t212 sky130_fd_pr__nfet_01v8 ad=1.155 pd=7.33 as=1.155 ps=7.33 w=7 l=1
X226 commonsourceibias.t31 commonsourceibias.t30 gnd.t271 gnd.t259 sky130_fd_pr__nfet_01v8 ad=1.155 pd=7.33 as=1.155 ps=7.33 w=7 l=1
X227 CSoutput.t30 a_n5644_8799.t63 vdd.t146 vdd.t145 sky130_fd_pr__pfet_01v8_lvt ad=1.32 pd=8.33 as=1.32 ps=8.33 w=8 l=0.5
X228 vdd.t144 a_n5644_8799.t64 CSoutput.t11 vdd.t116 sky130_fd_pr__pfet_01v8_lvt ad=3.12 pd=16.78 as=1.32 ps=8.33 w=8 l=0.5
X229 a_n1986_8322.t5 a_n1986_13878.t62 a_n5644_8799.t3 vdd.t16 sky130_fd_pr__pfet_01v8_lvt ad=1.485 pd=9.33 as=1.485 ps=9.33 w=9 l=0.5
X230 gnd.t270 commonsourceibias.t128 CSoutput.t74 gnd.t220 sky130_fd_pr__nfet_01v8 ad=1.155 pd=7.33 as=1.155 ps=7.33 w=7 l=1
X231 vdd.t15 CSoutput.t159 output.t5 gnd.t172 sky130_fd_pr__nfet_01v8_lvt ad=0.825 pd=5.33 as=0.825 ps=5.33 w=5 l=1
X232 vdd.t143 a_n5644_8799.t65 CSoutput.t27 vdd.t142 sky130_fd_pr__pfet_01v8_lvt ad=1.32 pd=8.33 as=1.32 ps=8.33 w=8 l=0.5
X233 CSoutput.t36 a_n5644_8799.t66 vdd.t141 vdd.t122 sky130_fd_pr__pfet_01v8_lvt ad=1.32 pd=8.33 as=1.32 ps=8.33 w=8 l=0.5
X234 CSoutput.t73 commonsourceibias.t129 gnd.t269 gnd.t197 sky130_fd_pr__nfet_01v8 ad=1.155 pd=7.33 as=2.73 ps=14.78 w=7 l=1
X235 gnd.t268 commonsourceibias.t28 commonsourceibias.t29 gnd.t267 sky130_fd_pr__nfet_01v8 ad=1.155 pd=7.33 as=1.155 ps=7.33 w=7 l=1
X236 vdd.t140 a_n5644_8799.t67 CSoutput.t33 vdd.t131 sky130_fd_pr__pfet_01v8_lvt ad=1.32 pd=8.33 as=1.32 ps=8.33 w=8 l=0.5
X237 vdd.t32 a_n1986_13878.t63 a_n1986_8322.t6 vdd.t31 sky130_fd_pr__pfet_01v8_lvt ad=1.485 pd=9.33 as=3.51 ps=18.78 w=9 l=0.5
X238 plus.t1 gnd.t83 gnd.t85 gnd.t84 sky130_fd_pr__nfet_01v8 ad=0.165 pd=1.33 as=0.165 ps=1.33 w=1 l=0.5
X239 gnd.t82 gnd.t80 minus.t1 gnd.t81 sky130_fd_pr__nfet_01v8 ad=0.39 pd=2.78 as=0.165 ps=1.33 w=1 l=0.5
X240 gnd.t266 commonsourceibias.t130 CSoutput.t72 gnd.t218 sky130_fd_pr__nfet_01v8 ad=1.155 pd=7.33 as=1.155 ps=7.33 w=7 l=1
X241 gnd.t79 gnd.t76 gnd.t78 gnd.t77 sky130_fd_pr__nfet_01v8 ad=2.73 pd=14.78 as=0 ps=0 w=7 l=0.5
X242 a_n1808_13878.t3 a_n1986_13878.t64 vdd.t22 vdd.t21 sky130_fd_pr__pfet_01v8_lvt ad=3.51 pd=18.78 as=1.485 ps=9.33 w=9 l=0.5
X243 gnd.t75 gnd.t72 gnd.t74 gnd.t73 sky130_fd_pr__nfet_01v8 ad=2.73 pd=14.78 as=0 ps=0 w=7 l=0.5
X244 output.t4 CSoutput.t160 vdd.t11 gnd.t173 sky130_fd_pr__nfet_01v8_lvt ad=1.95 pd=10.78 as=0.825 ps=5.33 w=5 l=1
X245 gnd.t71 gnd.t68 gnd.t70 gnd.t69 sky130_fd_pr__nfet_01v8 ad=2.73 pd=14.78 as=0 ps=0 w=7 l=1
X246 a_n2903_n3924.t3 diffpairibias.t21 gnd.t168 gnd.t167 sky130_fd_pr__nfet_01v8 ad=2.73 pd=14.78 as=2.73 ps=14.78 w=7 l=1