* NGSPICE file created from opamp148.ext - technology: sky130A

.subckt opamp148 gnd CSoutput output vdd plus minus commonsourceibias outputibias
+ diffpairibias
X0 CSoutput.t139 commonsourceibias.t48 gnd.t316 gnd.t265 sky130_fd_pr__nfet_01v8 ad=1.155 pd=7.33 as=1.155 ps=7.33 w=7 l=1
X1 a_n2804_13878.t7 a_n2982_13878.t72 vdd.t246 vdd.t245 sky130_fd_pr__pfet_01v8 ad=1.485 pd=9.33 as=1.485 ps=9.33 w=9 l=0.5
X2 a_n2804_13878.t31 a_n2982_13878.t32 a_n2982_13878.t33 vdd.t233 sky130_fd_pr__pfet_01v8 ad=1.485 pd=9.33 as=1.485 ps=9.33 w=9 l=0.5
X3 vdd.t9 a_n8964_8799.t48 CSoutput.t4 vdd.t8 sky130_fd_pr__pfet_01v8 ad=1.32 pd=8.33 as=1.32 ps=8.33 w=8 l=0.5
X4 output.t15 CSoutput.t168 vdd.t113 gnd.t18 sky130_fd_pr__nfet_01v8 ad=0.825 pd=5.33 as=0.825 ps=5.33 w=5 l=1
X5 gnd.t315 commonsourceibias.t49 CSoutput.t138 gnd.t259 sky130_fd_pr__nfet_01v8 ad=1.155 pd=7.33 as=1.155 ps=7.33 w=7 l=1
X6 CSoutput.t137 commonsourceibias.t50 gnd.t314 gnd.t238 sky130_fd_pr__nfet_01v8 ad=1.155 pd=7.33 as=1.155 ps=7.33 w=7 l=1
X7 CSoutput.t136 commonsourceibias.t51 gnd.t313 gnd.t197 sky130_fd_pr__nfet_01v8 ad=1.155 pd=7.33 as=1.155 ps=7.33 w=7 l=1
X8 CSoutput.t5 a_n8964_8799.t49 vdd.t11 vdd.t10 sky130_fd_pr__pfet_01v8 ad=1.32 pd=8.33 as=1.32 ps=8.33 w=8 l=0.5
X9 vdd.t181 a_n8964_8799.t50 CSoutput.t60 vdd.t180 sky130_fd_pr__pfet_01v8 ad=1.32 pd=8.33 as=1.32 ps=8.33 w=8 l=0.5
X10 a_n2982_8322.t29 a_n2982_13878.t73 a_n8964_8799.t45 vdd.t243 sky130_fd_pr__pfet_01v8 ad=1.485 pd=9.33 as=1.485 ps=9.33 w=9 l=0.5
X11 CSoutput.t61 a_n8964_8799.t51 vdd.t182 vdd.t21 sky130_fd_pr__pfet_01v8 ad=1.32 pd=8.33 as=1.32 ps=8.33 w=8 l=0.5
X12 vdd.t264 a_n8964_8799.t52 CSoutput.t156 vdd.t263 sky130_fd_pr__pfet_01v8 ad=1.32 pd=8.33 as=1.32 ps=8.33 w=8 l=0.5
X13 gnd.t196 gnd.t194 gnd.t195 gnd.t130 sky130_fd_pr__nfet_01v8 ad=2.73 pd=14.78 as=0 ps=0 w=7 l=0.5
X14 CSoutput.t157 a_n8964_8799.t53 vdd.t265 vdd.t132 sky130_fd_pr__pfet_01v8 ad=1.32 pd=8.33 as=1.32 ps=8.33 w=8 l=0.5
X15 gnd.t193 gnd.t191 gnd.t192 gnd.t123 sky130_fd_pr__nfet_01v8 ad=2.73 pd=14.78 as=0 ps=0 w=7 l=0.5
X16 gnd.t190 gnd.t189 plus.t4 gnd.t130 sky130_fd_pr__nfet_01v8 ad=0.165 pd=1.33 as=0.165 ps=1.33 w=1 l=0.5
X17 gnd.t312 commonsourceibias.t52 CSoutput.t135 gnd.t210 sky130_fd_pr__nfet_01v8 ad=2.73 pd=14.78 as=1.155 ps=7.33 w=7 l=1
X18 CSoutput.t134 commonsourceibias.t53 gnd.t311 gnd.t256 sky130_fd_pr__nfet_01v8 ad=1.155 pd=7.33 as=1.155 ps=7.33 w=7 l=1
X19 a_n8964_8799.t7 plus.t5 a_n2903_n3924.t40 gnd.t29 sky130_fd_pr__nfet_01v8 ad=1.155 pd=7.33 as=1.155 ps=7.33 w=7 l=0.5
X20 gnd.t310 commonsourceibias.t54 CSoutput.t133 gnd.t219 sky130_fd_pr__nfet_01v8 ad=2.73 pd=14.78 as=1.155 ps=7.33 w=7 l=1
X21 vdd.t274 a_n8964_8799.t54 CSoutput.t166 vdd.t263 sky130_fd_pr__pfet_01v8 ad=1.32 pd=8.33 as=1.32 ps=8.33 w=8 l=0.5
X22 vdd.t275 a_n8964_8799.t55 CSoutput.t167 vdd.t186 sky130_fd_pr__pfet_01v8 ad=3.12 pd=16.78 as=1.32 ps=8.33 w=8 l=0.5
X23 CSoutput.t132 commonsourceibias.t55 gnd.t304 gnd.t256 sky130_fd_pr__nfet_01v8 ad=1.155 pd=7.33 as=1.155 ps=7.33 w=7 l=1
X24 minus.t4 gnd.t186 gnd.t188 gnd.t187 sky130_fd_pr__nfet_01v8 ad=0.165 pd=1.33 as=0.165 ps=1.33 w=1 l=0.5
X25 CSoutput.t131 commonsourceibias.t56 gnd.t309 gnd.t269 sky130_fd_pr__nfet_01v8 ad=1.155 pd=7.33 as=1.155 ps=7.33 w=7 l=1
X26 CSoutput.t130 commonsourceibias.t57 gnd.t308 gnd.t197 sky130_fd_pr__nfet_01v8 ad=1.155 pd=7.33 as=1.155 ps=7.33 w=7 l=1
X27 a_n8964_8799.t37 a_n2982_13878.t74 a_n2982_8322.t28 vdd.t229 sky130_fd_pr__pfet_01v8 ad=1.485 pd=9.33 as=1.485 ps=9.33 w=9 l=0.5
X28 vdd.t158 a_n8964_8799.t56 CSoutput.t40 vdd.t2 sky130_fd_pr__pfet_01v8 ad=1.32 pd=8.33 as=1.32 ps=8.33 w=8 l=0.5
X29 vdd.t159 a_n8964_8799.t57 CSoutput.t41 vdd.t152 sky130_fd_pr__pfet_01v8 ad=1.32 pd=8.33 as=1.32 ps=8.33 w=8 l=0.5
X30 gnd.t185 gnd.t182 gnd.t184 gnd.t183 sky130_fd_pr__nfet_01v8 ad=1.95 pd=10.78 as=0 ps=0 w=5 l=1
X31 a_n8964_8799.t38 a_n2982_13878.t75 a_n2982_8322.t27 vdd.t192 sky130_fd_pr__pfet_01v8 ad=1.485 pd=9.33 as=3.51 ps=18.78 w=9 l=0.5
X32 CSoutput.t129 commonsourceibias.t58 gnd.t307 gnd.t265 sky130_fd_pr__nfet_01v8 ad=1.155 pd=7.33 as=1.155 ps=7.33 w=7 l=1
X33 gnd.t306 commonsourceibias.t59 CSoutput.t128 gnd.t249 sky130_fd_pr__nfet_01v8 ad=1.155 pd=7.33 as=1.155 ps=7.33 w=7 l=1
X34 gnd.t181 gnd.t179 gnd.t180 gnd.t115 sky130_fd_pr__nfet_01v8 ad=2.73 pd=14.78 as=0 ps=0 w=7 l=1
X35 a_n8964_8799.t17 plus.t6 a_n2903_n3924.t39 gnd.t43 sky130_fd_pr__nfet_01v8 ad=1.155 pd=7.33 as=1.155 ps=7.33 w=7 l=0.5
X36 CSoutput.t127 commonsourceibias.t60 gnd.t305 gnd.t227 sky130_fd_pr__nfet_01v8 ad=1.155 pd=7.33 as=1.155 ps=7.33 w=7 l=1
X37 vdd.t112 CSoutput.t169 output.t14 gnd.t19 sky130_fd_pr__nfet_01v8 ad=0.825 pd=5.33 as=0.825 ps=5.33 w=5 l=1
X38 CSoutput.t170 a_n2982_8322.t5 sky130_fd_pr__cap_mim_m3_1 l=12 w=12
X39 CSoutput.t126 commonsourceibias.t61 gnd.t303 gnd.t245 sky130_fd_pr__nfet_01v8 ad=1.155 pd=7.33 as=1.155 ps=7.33 w=7 l=1
X40 a_n2903_n3924.t16 diffpairibias.t16 gnd.t63 gnd.t62 sky130_fd_pr__nfet_01v8 ad=2.73 pd=14.78 as=2.73 ps=14.78 w=7 l=1
X41 a_n2903_n3924.t4 minus.t5 a_n2982_13878.t3 gnd.t21 sky130_fd_pr__nfet_01v8 ad=1.155 pd=7.33 as=1.155 ps=7.33 w=7 l=0.5
X42 CSoutput.t58 a_n8964_8799.t58 vdd.t178 vdd.t144 sky130_fd_pr__pfet_01v8 ad=1.32 pd=8.33 as=1.32 ps=8.33 w=8 l=0.5
X43 gnd.t302 commonsourceibias.t62 CSoutput.t125 gnd.t225 sky130_fd_pr__nfet_01v8 ad=1.155 pd=7.33 as=1.155 ps=7.33 w=7 l=1
X44 a_n2903_n3924.t38 plus.t7 a_n8964_8799.t8 gnd.t30 sky130_fd_pr__nfet_01v8 ad=1.155 pd=7.33 as=1.155 ps=7.33 w=7 l=0.5
X45 vdd.t179 a_n8964_8799.t59 CSoutput.t59 vdd.t2 sky130_fd_pr__pfet_01v8 ad=1.32 pd=8.33 as=1.32 ps=8.33 w=8 l=0.5
X46 CSoutput.t124 commonsourceibias.t63 gnd.t301 gnd.t206 sky130_fd_pr__nfet_01v8 ad=1.155 pd=7.33 as=2.73 ps=14.78 w=7 l=1
X47 a_n2982_13878.t21 minus.t6 a_n2903_n3924.t52 gnd.t74 sky130_fd_pr__nfet_01v8 ad=1.155 pd=7.33 as=1.155 ps=7.33 w=7 l=0.5
X48 outputibias.t7 outputibias.t6 gnd.t50 gnd.t49 sky130_fd_pr__nfet_01v8 ad=2.34 pd=12.78 as=2.34 ps=12.78 w=6 l=2
X49 gnd.t300 commonsourceibias.t46 commonsourceibias.t47 gnd.t222 sky130_fd_pr__nfet_01v8 ad=1.155 pd=7.33 as=1.155 ps=7.33 w=7 l=1
X50 CSoutput.t123 commonsourceibias.t64 gnd.t299 gnd.t245 sky130_fd_pr__nfet_01v8 ad=1.155 pd=7.33 as=1.155 ps=7.33 w=7 l=1
X51 a_n2903_n3924.t37 plus.t8 a_n8964_8799.t6 gnd.t25 sky130_fd_pr__nfet_01v8 ad=1.155 pd=7.33 as=1.155 ps=7.33 w=7 l=0.5
X52 a_n2903_n3924.t12 minus.t7 a_n2982_13878.t10 gnd.t42 sky130_fd_pr__nfet_01v8 ad=1.155 pd=7.33 as=1.155 ps=7.33 w=7 l=0.5
X53 vdd.t261 a_n8964_8799.t60 CSoutput.t154 vdd.t180 sky130_fd_pr__pfet_01v8 ad=1.32 pd=8.33 as=1.32 ps=8.33 w=8 l=0.5
X54 CSoutput.t122 commonsourceibias.t65 gnd.t298 gnd.t234 sky130_fd_pr__nfet_01v8 ad=1.155 pd=7.33 as=1.155 ps=7.33 w=7 l=1
X55 a_n2804_13878.t30 a_n2982_13878.t30 a_n2982_13878.t31 vdd.t200 sky130_fd_pr__pfet_01v8 ad=1.485 pd=9.33 as=1.485 ps=9.33 w=9 l=0.5
X56 a_n2982_13878.t29 a_n2982_13878.t28 a_n2804_13878.t29 vdd.t215 sky130_fd_pr__pfet_01v8 ad=1.485 pd=9.33 as=1.485 ps=9.33 w=9 l=0.5
X57 gnd.t297 commonsourceibias.t66 CSoutput.t121 gnd.t259 sky130_fd_pr__nfet_01v8 ad=1.155 pd=7.33 as=1.155 ps=7.33 w=7 l=1
X58 CSoutput.t155 a_n8964_8799.t61 vdd.t262 vdd.t132 sky130_fd_pr__pfet_01v8 ad=1.32 pd=8.33 as=1.32 ps=8.33 w=8 l=0.5
X59 gnd.t296 commonsourceibias.t44 commonsourceibias.t45 gnd.t201 sky130_fd_pr__nfet_01v8 ad=1.155 pd=7.33 as=1.155 ps=7.33 w=7 l=1
X60 a_n2903_n3924.t0 minus.t8 a_n2982_13878.t0 gnd.t0 sky130_fd_pr__nfet_01v8 ad=1.155 pd=7.33 as=1.155 ps=7.33 w=7 l=0.5
X61 vdd.t106 vdd.t104 vdd.t105 vdd.t81 sky130_fd_pr__pfet_01v8 ad=3.51 pd=18.78 as=0 ps=0 w=9 l=0.5
X62 CSoutput.t120 commonsourceibias.t67 gnd.t295 gnd.t256 sky130_fd_pr__nfet_01v8 ad=1.155 pd=7.33 as=1.155 ps=7.33 w=7 l=1
X63 vdd.t272 a_n8964_8799.t62 CSoutput.t164 vdd.t186 sky130_fd_pr__pfet_01v8 ad=3.12 pd=16.78 as=1.32 ps=8.33 w=8 l=0.5
X64 vdd.t273 a_n8964_8799.t63 CSoutput.t165 vdd.t263 sky130_fd_pr__pfet_01v8 ad=1.32 pd=8.33 as=1.32 ps=8.33 w=8 l=0.5
X65 gnd.t178 gnd.t176 gnd.t177 gnd.t97 sky130_fd_pr__nfet_01v8 ad=2.73 pd=14.78 as=0 ps=0 w=7 l=1
X66 gnd.t175 gnd.t173 gnd.t174 gnd.t115 sky130_fd_pr__nfet_01v8 ad=2.73 pd=14.78 as=0 ps=0 w=7 l=1
X67 CSoutput.t119 commonsourceibias.t68 gnd.t294 gnd.t234 sky130_fd_pr__nfet_01v8 ad=1.155 pd=7.33 as=1.155 ps=7.33 w=7 l=1
X68 diffpairibias.t15 diffpairibias.t14 gnd.t9 gnd.t8 sky130_fd_pr__nfet_01v8 ad=2.73 pd=14.78 as=2.73 ps=14.78 w=7 l=1
X69 a_n2982_13878.t27 a_n2982_13878.t26 a_n2804_13878.t28 vdd.t228 sky130_fd_pr__pfet_01v8 ad=1.485 pd=9.33 as=1.485 ps=9.33 w=9 l=0.5
X70 CSoutput.t118 commonsourceibias.t69 gnd.t293 gnd.t206 sky130_fd_pr__nfet_01v8 ad=1.155 pd=7.33 as=2.73 ps=14.78 w=7 l=1
X71 CSoutput.t38 a_n8964_8799.t64 vdd.t156 vdd.t154 sky130_fd_pr__pfet_01v8 ad=1.32 pd=8.33 as=1.32 ps=8.33 w=8 l=0.5
X72 CSoutput.t117 commonsourceibias.t70 gnd.t292 gnd.t243 sky130_fd_pr__nfet_01v8 ad=1.155 pd=7.33 as=2.73 ps=14.78 w=7 l=1
X73 gnd.t289 commonsourceibias.t71 CSoutput.t116 gnd.t230 sky130_fd_pr__nfet_01v8 ad=1.155 pd=7.33 as=1.155 ps=7.33 w=7 l=1
X74 vdd.t157 a_n8964_8799.t65 CSoutput.t39 vdd.t136 sky130_fd_pr__pfet_01v8 ad=1.32 pd=8.33 as=1.32 ps=8.33 w=8 l=0.5
X75 a_n8964_8799.t35 a_n2982_13878.t76 a_n2982_8322.t26 vdd.t225 sky130_fd_pr__pfet_01v8 ad=1.485 pd=9.33 as=1.485 ps=9.33 w=9 l=0.5
X76 CSoutput.t152 a_n8964_8799.t66 vdd.t259 vdd.t189 sky130_fd_pr__pfet_01v8 ad=1.32 pd=8.33 as=1.32 ps=8.33 w=8 l=0.5
X77 gnd.t291 commonsourceibias.t72 CSoutput.t115 gnd.t208 sky130_fd_pr__nfet_01v8 ad=1.155 pd=7.33 as=1.155 ps=7.33 w=7 l=1
X78 a_n2982_13878.t9 minus.t9 a_n2903_n3924.t11 gnd.t41 sky130_fd_pr__nfet_01v8 ad=1.155 pd=7.33 as=2.73 ps=14.78 w=7 l=0.5
X79 a_n2982_13878.t47 a_n2982_13878.t46 a_n2804_13878.t27 vdd.t244 sky130_fd_pr__pfet_01v8 ad=1.485 pd=9.33 as=1.485 ps=9.33 w=9 l=0.5
X80 gnd.t172 gnd.t170 plus.t3 gnd.t171 sky130_fd_pr__nfet_01v8 ad=0.165 pd=1.33 as=0.39 ps=2.78 w=1 l=0.5
X81 vdd.t260 a_n8964_8799.t67 CSoutput.t153 vdd.t138 sky130_fd_pr__pfet_01v8 ad=1.32 pd=8.33 as=1.32 ps=8.33 w=8 l=0.5
X82 vdd.t268 a_n8964_8799.t68 CSoutput.t160 vdd.t152 sky130_fd_pr__pfet_01v8 ad=1.32 pd=8.33 as=1.32 ps=8.33 w=8 l=0.5
X83 a_n8964_8799.t32 a_n2982_13878.t77 a_n2982_8322.t25 vdd.t223 sky130_fd_pr__pfet_01v8 ad=1.485 pd=9.33 as=1.485 ps=9.33 w=9 l=0.5
X84 CSoutput.t114 commonsourceibias.t73 gnd.t290 gnd.t243 sky130_fd_pr__nfet_01v8 ad=1.155 pd=7.33 as=2.73 ps=14.78 w=7 l=1
X85 diffpairibias.t13 diffpairibias.t12 gnd.t12 gnd.t11 sky130_fd_pr__nfet_01v8 ad=2.73 pd=14.78 as=2.73 ps=14.78 w=7 l=1
X86 CSoutput.t161 a_n8964_8799.t69 vdd.t269 vdd.t147 sky130_fd_pr__pfet_01v8 ad=1.32 pd=8.33 as=1.32 ps=8.33 w=8 l=0.5
X87 gnd.t288 commonsourceibias.t42 commonsourceibias.t43 gnd.t232 sky130_fd_pr__nfet_01v8 ad=1.155 pd=7.33 as=1.155 ps=7.33 w=7 l=1
X88 a_n8964_8799.t44 a_n2982_13878.t78 a_n2982_8322.t24 vdd.t236 sky130_fd_pr__pfet_01v8 ad=1.485 pd=9.33 as=1.485 ps=9.33 w=9 l=0.5
X89 CSoutput.t113 commonsourceibias.t74 gnd.t287 gnd.t269 sky130_fd_pr__nfet_01v8 ad=1.155 pd=7.33 as=1.155 ps=7.33 w=7 l=1
X90 gnd.t286 commonsourceibias.t75 CSoutput.t112 gnd.t232 sky130_fd_pr__nfet_01v8 ad=1.155 pd=7.33 as=1.155 ps=7.33 w=7 l=1
X91 CSoutput.t111 commonsourceibias.t76 gnd.t285 gnd.t217 sky130_fd_pr__nfet_01v8 ad=1.155 pd=7.33 as=1.155 ps=7.33 w=7 l=1
X92 a_n2982_8322.t23 a_n2982_13878.t79 a_n8964_8799.t43 vdd.t244 sky130_fd_pr__pfet_01v8 ad=1.485 pd=9.33 as=1.485 ps=9.33 w=9 l=0.5
X93 gnd.t284 commonsourceibias.t77 CSoutput.t110 gnd.t249 sky130_fd_pr__nfet_01v8 ad=1.155 pd=7.33 as=1.155 ps=7.33 w=7 l=1
X94 CSoutput.t24 a_n8964_8799.t70 vdd.t134 vdd.t19 sky130_fd_pr__pfet_01v8 ad=1.32 pd=8.33 as=1.32 ps=8.33 w=8 l=0.5
X95 plus.t2 gnd.t167 gnd.t169 gnd.t168 sky130_fd_pr__nfet_01v8 ad=0.165 pd=1.33 as=0.165 ps=1.33 w=1 l=0.5
X96 a_n8964_8799.t15 plus.t9 a_n2903_n3924.t36 gnd.t28 sky130_fd_pr__nfet_01v8 ad=1.155 pd=7.33 as=1.155 ps=7.33 w=7 l=0.5
X97 gnd.t283 commonsourceibias.t78 CSoutput.t109 gnd.t232 sky130_fd_pr__nfet_01v8 ad=1.155 pd=7.33 as=1.155 ps=7.33 w=7 l=1
X98 vdd.t103 vdd.t101 vdd.t102 vdd.t77 sky130_fd_pr__pfet_01v8 ad=3.12 pd=16.78 as=0 ps=0 w=8 l=0.5
X99 a_n2903_n3924.t15 diffpairibias.t17 gnd.t61 gnd.t60 sky130_fd_pr__nfet_01v8 ad=2.73 pd=14.78 as=2.73 ps=14.78 w=7 l=1
X100 vdd.t135 a_n8964_8799.t71 CSoutput.t25 vdd.t4 sky130_fd_pr__pfet_01v8 ad=1.32 pd=8.33 as=1.32 ps=8.33 w=8 l=0.5
X101 gnd.t166 gnd.t164 gnd.t165 gnd.t101 sky130_fd_pr__nfet_01v8 ad=2.73 pd=14.78 as=0 ps=0 w=7 l=1
X102 vdd.t108 CSoutput.t171 output.t13 gnd.t51 sky130_fd_pr__nfet_01v8 ad=0.825 pd=5.33 as=0.825 ps=5.33 w=5 l=1
X103 a_n2903_n3924.t46 minus.t10 a_n2982_13878.t17 gnd.t69 sky130_fd_pr__nfet_01v8 ad=1.155 pd=7.33 as=1.155 ps=7.33 w=7 l=0.5
X104 vdd.t140 a_n8964_8799.t72 CSoutput.t28 vdd.t29 sky130_fd_pr__pfet_01v8 ad=1.32 pd=8.33 as=1.32 ps=8.33 w=8 l=0.5
X105 a_n2982_13878.t45 a_n2982_13878.t44 a_n2804_13878.t26 vdd.t243 sky130_fd_pr__pfet_01v8 ad=1.485 pd=9.33 as=1.485 ps=9.33 w=9 l=0.5
X106 vdd.t141 a_n8964_8799.t73 CSoutput.t29 vdd.t126 sky130_fd_pr__pfet_01v8 ad=1.32 pd=8.33 as=1.32 ps=8.33 w=8 l=0.5
X107 gnd.t282 commonsourceibias.t79 CSoutput.t108 gnd.t225 sky130_fd_pr__nfet_01v8 ad=1.155 pd=7.33 as=1.155 ps=7.33 w=7 l=1
X108 a_n8964_8799.t29 a_n2982_13878.t80 a_n2982_8322.t22 vdd.t232 sky130_fd_pr__pfet_01v8 ad=1.485 pd=9.33 as=1.485 ps=9.33 w=9 l=0.5
X109 a_n2982_13878.t39 a_n2982_13878.t38 a_n2804_13878.t25 vdd.t195 sky130_fd_pr__pfet_01v8 ad=3.51 pd=18.78 as=1.485 ps=9.33 w=9 l=0.5
X110 a_n2982_13878.t14 minus.t11 a_n2903_n3924.t43 gnd.t35 sky130_fd_pr__nfet_01v8 ad=1.155 pd=7.33 as=1.155 ps=7.33 w=7 l=0.5
X111 gnd.t163 gnd.t161 gnd.t162 gnd.t101 sky130_fd_pr__nfet_01v8 ad=2.73 pd=14.78 as=0 ps=0 w=7 l=1
X112 a_n2903_n3924.t35 plus.t10 a_n8964_8799.t47 gnd.t2 sky130_fd_pr__nfet_01v8 ad=1.155 pd=7.33 as=1.155 ps=7.33 w=7 l=0.5
X113 CSoutput.t172 a_n2982_8322.t4 sky130_fd_pr__cap_mim_m3_1 l=12 w=12
X114 vdd.t114 CSoutput.t173 output.t12 gnd.t52 sky130_fd_pr__nfet_01v8 ad=0.825 pd=5.33 as=0.825 ps=5.33 w=5 l=1
X115 CSoutput.t146 a_n8964_8799.t74 vdd.t253 vdd.t154 sky130_fd_pr__pfet_01v8 ad=1.32 pd=8.33 as=1.32 ps=8.33 w=8 l=0.5
X116 gnd.t281 commonsourceibias.t80 CSoutput.t107 gnd.t203 sky130_fd_pr__nfet_01v8 ad=1.155 pd=7.33 as=1.155 ps=7.33 w=7 l=1
X117 a_n2903_n3924.t55 minus.t12 a_n2982_13878.t71 gnd.t1 sky130_fd_pr__nfet_01v8 ad=2.73 pd=14.78 as=1.155 ps=7.33 w=7 l=0.5
X118 vdd.t100 vdd.t98 vdd.t99 vdd.t88 sky130_fd_pr__pfet_01v8 ad=3.51 pd=18.78 as=0 ps=0 w=9 l=0.5
X119 gnd.t280 commonsourceibias.t40 commonsourceibias.t41 gnd.t210 sky130_fd_pr__nfet_01v8 ad=2.73 pd=14.78 as=1.155 ps=7.33 w=7 l=1
X120 gnd.t279 commonsourceibias.t81 CSoutput.t106 gnd.t222 sky130_fd_pr__nfet_01v8 ad=1.155 pd=7.33 as=1.155 ps=7.33 w=7 l=1
X121 CSoutput.t147 a_n8964_8799.t75 vdd.t254 vdd.t147 sky130_fd_pr__pfet_01v8 ad=1.32 pd=8.33 as=1.32 ps=8.33 w=8 l=0.5
X122 vdd.t97 vdd.t94 vdd.t96 vdd.t95 sky130_fd_pr__pfet_01v8 ad=3.51 pd=18.78 as=0 ps=0 w=9 l=0.5
X123 a_n2804_13878.t24 a_n2982_13878.t36 a_n2982_13878.t37 vdd.t205 sky130_fd_pr__pfet_01v8 ad=1.485 pd=9.33 as=3.51 ps=18.78 w=9 l=0.5
X124 CSoutput.t14 a_n8964_8799.t76 vdd.t28 vdd.t27 sky130_fd_pr__pfet_01v8 ad=1.32 pd=8.33 as=1.32 ps=8.33 w=8 l=0.5
X125 vdd.t30 a_n8964_8799.t77 CSoutput.t15 vdd.t29 sky130_fd_pr__pfet_01v8 ad=1.32 pd=8.33 as=1.32 ps=8.33 w=8 l=0.5
X126 vdd.t242 a_n2982_13878.t81 a_n2982_8322.t37 vdd.t241 sky130_fd_pr__pfet_01v8 ad=1.485 pd=9.33 as=1.485 ps=9.33 w=9 l=0.5
X127 a_n2982_13878.t55 a_n2982_13878.t54 a_n2804_13878.t23 vdd.t203 sky130_fd_pr__pfet_01v8 ad=1.485 pd=9.33 as=1.485 ps=9.33 w=9 l=0.5
X128 a_n2982_8322.t36 a_n2982_13878.t82 vdd.t240 vdd.t239 sky130_fd_pr__pfet_01v8 ad=1.485 pd=9.33 as=1.485 ps=9.33 w=9 l=0.5
X129 a_n2903_n3924.t48 diffpairibias.t18 gnd.t73 gnd.t72 sky130_fd_pr__nfet_01v8 ad=2.73 pd=14.78 as=2.73 ps=14.78 w=7 l=1
X130 CSoutput.t20 a_n8964_8799.t78 vdd.t128 vdd.t19 sky130_fd_pr__pfet_01v8 ad=1.32 pd=8.33 as=1.32 ps=8.33 w=8 l=0.5
X131 a_n2982_13878.t20 minus.t13 a_n2903_n3924.t51 gnd.t5 sky130_fd_pr__nfet_01v8 ad=1.155 pd=7.33 as=1.155 ps=7.33 w=7 l=0.5
X132 CSoutput.t105 commonsourceibias.t82 gnd.t278 gnd.t269 sky130_fd_pr__nfet_01v8 ad=1.155 pd=7.33 as=1.155 ps=7.33 w=7 l=1
X133 CSoutput.t104 commonsourceibias.t83 gnd.t277 gnd.t265 sky130_fd_pr__nfet_01v8 ad=1.155 pd=7.33 as=1.155 ps=7.33 w=7 l=1
X134 gnd.t160 gnd.t158 gnd.t159 gnd.t97 sky130_fd_pr__nfet_01v8 ad=2.73 pd=14.78 as=0 ps=0 w=7 l=1
X135 a_n2903_n3924.t34 plus.t11 a_n8964_8799.t12 gnd.t46 sky130_fd_pr__nfet_01v8 ad=1.155 pd=7.33 as=1.155 ps=7.33 w=7 l=0.5
X136 vdd.t238 a_n2982_13878.t83 a_n2804_13878.t6 vdd.t237 sky130_fd_pr__pfet_01v8 ad=1.485 pd=9.33 as=1.485 ps=9.33 w=9 l=0.5
X137 gnd.t147 gnd.t145 minus.t3 gnd.t146 sky130_fd_pr__nfet_01v8 ad=0.165 pd=1.33 as=0.39 ps=2.78 w=1 l=0.5
X138 vdd.t93 vdd.t91 vdd.t92 vdd.t77 sky130_fd_pr__pfet_01v8 ad=3.12 pd=16.78 as=0 ps=0 w=8 l=0.5
X139 vdd.t90 vdd.t87 vdd.t89 vdd.t88 sky130_fd_pr__pfet_01v8 ad=3.51 pd=18.78 as=0 ps=0 w=9 l=0.5
X140 gnd.t157 gnd.t155 gnd.t156 gnd.t101 sky130_fd_pr__nfet_01v8 ad=2.73 pd=14.78 as=0 ps=0 w=7 l=1
X141 a_n2804_13878.t22 a_n2982_13878.t52 a_n2982_13878.t53 vdd.t236 sky130_fd_pr__pfet_01v8 ad=1.485 pd=9.33 as=1.485 ps=9.33 w=9 l=0.5
X142 vdd.t129 a_n8964_8799.t79 CSoutput.t21 vdd.t29 sky130_fd_pr__pfet_01v8 ad=1.32 pd=8.33 as=1.32 ps=8.33 w=8 l=0.5
X143 vdd.t165 a_n8964_8799.t80 CSoutput.t46 vdd.t126 sky130_fd_pr__pfet_01v8 ad=1.32 pd=8.33 as=1.32 ps=8.33 w=8 l=0.5
X144 a_n2982_8322.t21 a_n2982_13878.t84 a_n8964_8799.t42 vdd.t224 sky130_fd_pr__pfet_01v8 ad=1.485 pd=9.33 as=1.485 ps=9.33 w=9 l=0.5
X145 output.t11 CSoutput.t174 vdd.t118 gnd.t13 sky130_fd_pr__nfet_01v8 ad=0.825 pd=5.33 as=0.825 ps=5.33 w=5 l=1
X146 a_n8964_8799.t21 plus.t12 a_n2903_n3924.t33 gnd.t68 sky130_fd_pr__nfet_01v8 ad=1.155 pd=7.33 as=2.73 ps=14.78 w=7 l=0.5
X147 vdd.t86 vdd.t84 vdd.t85 vdd.t54 sky130_fd_pr__pfet_01v8 ad=3.12 pd=16.78 as=0 ps=0 w=8 l=0.5
X148 vdd.t83 vdd.t80 vdd.t82 vdd.t81 sky130_fd_pr__pfet_01v8 ad=3.51 pd=18.78 as=0 ps=0 w=9 l=0.5
X149 a_n2982_8322.t35 a_n2982_13878.t85 vdd.t235 vdd.t234 sky130_fd_pr__pfet_01v8 ad=3.51 pd=18.78 as=1.485 ps=9.33 w=9 l=0.5
X150 a_n2982_13878.t19 minus.t14 a_n2903_n3924.t50 gnd.t75 sky130_fd_pr__nfet_01v8 ad=1.155 pd=7.33 as=1.155 ps=7.33 w=7 l=0.5
X151 a_n8964_8799.t28 a_n2982_13878.t86 a_n2982_8322.t20 vdd.t202 sky130_fd_pr__pfet_01v8 ad=1.485 pd=9.33 as=1.485 ps=9.33 w=9 l=0.5
X152 CSoutput.t47 a_n8964_8799.t81 vdd.t166 vdd.t16 sky130_fd_pr__pfet_01v8 ad=1.32 pd=8.33 as=1.32 ps=8.33 w=8 l=0.5
X153 diffpairibias.t11 diffpairibias.t10 gnd.t48 gnd.t47 sky130_fd_pr__nfet_01v8 ad=2.73 pd=14.78 as=2.73 ps=14.78 w=7 l=1
X154 vdd.t153 a_n8964_8799.t82 CSoutput.t36 vdd.t152 sky130_fd_pr__pfet_01v8 ad=1.32 pd=8.33 as=1.32 ps=8.33 w=8 l=0.5
X155 a_n2982_13878.t65 a_n2982_13878.t64 a_n2804_13878.t21 vdd.t216 sky130_fd_pr__pfet_01v8 ad=1.485 pd=9.33 as=1.485 ps=9.33 w=9 l=0.5
X156 CSoutput.t103 commonsourceibias.t84 gnd.t276 gnd.t238 sky130_fd_pr__nfet_01v8 ad=1.155 pd=7.33 as=1.155 ps=7.33 w=7 l=1
X157 a_n8964_8799.t24 a_n2982_13878.t87 a_n2982_8322.t19 vdd.t233 sky130_fd_pr__pfet_01v8 ad=1.485 pd=9.33 as=1.485 ps=9.33 w=9 l=0.5
X158 CSoutput.t37 a_n8964_8799.t83 vdd.t155 vdd.t154 sky130_fd_pr__pfet_01v8 ad=1.32 pd=8.33 as=1.32 ps=8.33 w=8 l=0.5
X159 CSoutput.t66 a_n8964_8799.t84 vdd.t188 vdd.t173 sky130_fd_pr__pfet_01v8 ad=1.32 pd=8.33 as=1.32 ps=8.33 w=8 l=0.5
X160 commonsourceibias.t39 commonsourceibias.t38 gnd.t275 gnd.t197 sky130_fd_pr__nfet_01v8 ad=1.155 pd=7.33 as=1.155 ps=7.33 w=7 l=1
X161 gnd.t274 commonsourceibias.t85 CSoutput.t102 gnd.t259 sky130_fd_pr__nfet_01v8 ad=1.155 pd=7.33 as=1.155 ps=7.33 w=7 l=1
X162 a_n2804_13878.t20 a_n2982_13878.t62 a_n2982_13878.t63 vdd.t232 sky130_fd_pr__pfet_01v8 ad=1.485 pd=9.33 as=1.485 ps=9.33 w=9 l=0.5
X163 a_n8964_8799.t10 plus.t13 a_n2903_n3924.t32 gnd.t36 sky130_fd_pr__nfet_01v8 ad=1.155 pd=7.33 as=1.155 ps=7.33 w=7 l=0.5
X164 vdd.t79 vdd.t76 vdd.t78 vdd.t77 sky130_fd_pr__pfet_01v8 ad=3.12 pd=16.78 as=0 ps=0 w=8 l=0.5
X165 a_n2903_n3924.t2 minus.t15 a_n2982_13878.t2 gnd.t3 sky130_fd_pr__nfet_01v8 ad=1.155 pd=7.33 as=1.155 ps=7.33 w=7 l=0.5
X166 vdd.t75 vdd.t73 vdd.t74 vdd.t50 sky130_fd_pr__pfet_01v8 ad=3.12 pd=16.78 as=0 ps=0 w=8 l=0.5
X167 a_n2903_n3924.t9 minus.t16 a_n2982_13878.t8 gnd.t20 sky130_fd_pr__nfet_01v8 ad=2.73 pd=14.78 as=1.155 ps=7.33 w=7 l=0.5
X168 vdd.t72 vdd.t70 vdd.t71 vdd.t36 sky130_fd_pr__pfet_01v8 ad=3.51 pd=18.78 as=0 ps=0 w=9 l=0.5
X169 output.t18 outputibias.t8 gnd.t67 gnd.t66 sky130_fd_pr__nfet_01v8 ad=2.34 pd=12.78 as=2.34 ps=12.78 w=6 l=2
X170 CSoutput.t67 a_n8964_8799.t85 vdd.t190 vdd.t189 sky130_fd_pr__pfet_01v8 ad=1.32 pd=8.33 as=1.32 ps=8.33 w=8 l=0.5
X171 a_n2982_13878.t6 minus.t17 a_n2903_n3924.t7 gnd.t10 sky130_fd_pr__nfet_01v8 ad=1.155 pd=7.33 as=1.155 ps=7.33 w=7 l=0.5
X172 CSoutput.t101 commonsourceibias.t86 gnd.t273 gnd.t234 sky130_fd_pr__nfet_01v8 ad=1.155 pd=7.33 as=1.155 ps=7.33 w=7 l=1
X173 vdd.t231 a_n2982_13878.t88 a_n2982_8322.t34 vdd.t230 sky130_fd_pr__pfet_01v8 ad=1.485 pd=9.33 as=3.51 ps=18.78 w=9 l=0.5
X174 a_n2804_13878.t19 a_n2982_13878.t42 a_n2982_13878.t43 vdd.t229 sky130_fd_pr__pfet_01v8 ad=1.485 pd=9.33 as=1.485 ps=9.33 w=9 l=0.5
X175 vdd.t176 a_n8964_8799.t86 CSoutput.t56 vdd.t25 sky130_fd_pr__pfet_01v8 ad=3.12 pd=16.78 as=1.32 ps=8.33 w=8 l=0.5
X176 vdd.t177 a_n8964_8799.t87 CSoutput.t57 vdd.t8 sky130_fd_pr__pfet_01v8 ad=1.32 pd=8.33 as=1.32 ps=8.33 w=8 l=0.5
X177 gnd.t272 commonsourceibias.t87 CSoutput.t100 gnd.t230 sky130_fd_pr__nfet_01v8 ad=1.155 pd=7.33 as=1.155 ps=7.33 w=7 l=1
X178 gnd.t271 commonsourceibias.t88 CSoutput.t99 gnd.t249 sky130_fd_pr__nfet_01v8 ad=1.155 pd=7.33 as=1.155 ps=7.33 w=7 l=1
X179 a_n2982_13878.t41 a_n2982_13878.t40 a_n2804_13878.t18 vdd.t199 sky130_fd_pr__pfet_01v8 ad=1.485 pd=9.33 as=1.485 ps=9.33 w=9 l=0.5
X180 CSoutput.t175 a_n2982_8322.t3 sky130_fd_pr__cap_mim_m3_1 l=12 w=12
X181 commonsourceibias.t9 commonsourceibias.t8 gnd.t270 gnd.t269 sky130_fd_pr__nfet_01v8 ad=1.155 pd=7.33 as=1.155 ps=7.33 w=7 l=1
X182 vdd.t116 CSoutput.t176 output.t10 gnd.t14 sky130_fd_pr__nfet_01v8 ad=0.825 pd=5.33 as=0.825 ps=5.33 w=5 l=1
X183 output.t9 CSoutput.t177 vdd.t122 gnd.t15 sky130_fd_pr__nfet_01v8 ad=0.825 pd=5.33 as=0.825 ps=5.33 w=5 l=1
X184 output.t17 outputibias.t9 gnd.t34 gnd.t33 sky130_fd_pr__nfet_01v8 ad=2.34 pd=12.78 as=2.34 ps=12.78 w=6 l=2
X185 gnd.t268 commonsourceibias.t89 CSoutput.t98 gnd.t219 sky130_fd_pr__nfet_01v8 ad=2.73 pd=14.78 as=1.155 ps=7.33 w=7 l=1
X186 vdd.t24 a_n8964_8799.t88 CSoutput.t12 vdd.t23 sky130_fd_pr__pfet_01v8 ad=1.32 pd=8.33 as=1.32 ps=8.33 w=8 l=0.5
X187 CSoutput.t97 commonsourceibias.t90 gnd.t267 gnd.t227 sky130_fd_pr__nfet_01v8 ad=1.155 pd=7.33 as=1.155 ps=7.33 w=7 l=1
X188 a_n2903_n3924.t53 diffpairibias.t19 gnd.t77 gnd.t76 sky130_fd_pr__nfet_01v8 ad=2.73 pd=14.78 as=2.73 ps=14.78 w=7 l=1
X189 gnd.t154 gnd.t151 gnd.t153 gnd.t152 sky130_fd_pr__nfet_01v8 ad=2.73 pd=14.78 as=0 ps=0 w=7 l=1
X190 a_n2903_n3924.t41 diffpairibias.t20 gnd.t65 gnd.t64 sky130_fd_pr__nfet_01v8 ad=2.73 pd=14.78 as=2.73 ps=14.78 w=7 l=1
X191 output.t8 CSoutput.t178 vdd.t107 gnd.t16 sky130_fd_pr__nfet_01v8 ad=1.95 pd=10.78 as=0.825 ps=5.33 w=5 l=1
X192 commonsourceibias.t7 commonsourceibias.t6 gnd.t266 gnd.t265 sky130_fd_pr__nfet_01v8 ad=1.155 pd=7.33 as=1.155 ps=7.33 w=7 l=1
X193 a_n2982_13878.t70 minus.t18 a_n2903_n3924.t54 gnd.t29 sky130_fd_pr__nfet_01v8 ad=1.155 pd=7.33 as=1.155 ps=7.33 w=7 l=0.5
X194 vdd.t26 a_n8964_8799.t89 CSoutput.t13 vdd.t25 sky130_fd_pr__pfet_01v8 ad=3.12 pd=16.78 as=1.32 ps=8.33 w=8 l=0.5
X195 vdd.t5 a_n8964_8799.t90 CSoutput.t2 vdd.t4 sky130_fd_pr__pfet_01v8 ad=1.32 pd=8.33 as=1.32 ps=8.33 w=8 l=0.5
X196 CSoutput.t3 a_n8964_8799.t91 vdd.t7 vdd.t6 sky130_fd_pr__pfet_01v8 ad=1.32 pd=8.33 as=3.12 ps=16.78 w=8 l=0.5
X197 gnd.t150 gnd.t148 gnd.t149 gnd.t115 sky130_fd_pr__nfet_01v8 ad=2.73 pd=14.78 as=0 ps=0 w=7 l=1
X198 gnd.t144 gnd.t142 minus.t2 gnd.t143 sky130_fd_pr__nfet_01v8 ad=0.165 pd=1.33 as=0.165 ps=1.33 w=1 l=0.5
X199 vdd.t69 vdd.t67 vdd.t68 vdd.t54 sky130_fd_pr__pfet_01v8 ad=3.12 pd=16.78 as=0 ps=0 w=8 l=0.5
X200 CSoutput.t96 commonsourceibias.t91 gnd.t264 gnd.t238 sky130_fd_pr__nfet_01v8 ad=1.155 pd=7.33 as=1.155 ps=7.33 w=7 l=1
X201 CSoutput.t95 commonsourceibias.t92 gnd.t263 gnd.t217 sky130_fd_pr__nfet_01v8 ad=1.155 pd=7.33 as=1.155 ps=7.33 w=7 l=1
X202 a_n2804_13878.t17 a_n2982_13878.t56 a_n2982_13878.t57 vdd.t204 sky130_fd_pr__pfet_01v8 ad=1.485 pd=9.33 as=1.485 ps=9.33 w=9 l=0.5
X203 gnd.t141 gnd.t139 gnd.t140 gnd.t93 sky130_fd_pr__nfet_01v8 ad=2.73 pd=14.78 as=0 ps=0 w=7 l=1
X204 a_n2982_8322.t18 a_n2982_13878.t89 a_n8964_8799.t23 vdd.t228 sky130_fd_pr__pfet_01v8 ad=1.485 pd=9.33 as=1.485 ps=9.33 w=9 l=0.5
X205 CSoutput.t54 a_n8964_8799.t92 vdd.t174 vdd.t173 sky130_fd_pr__pfet_01v8 ad=1.32 pd=8.33 as=1.32 ps=8.33 w=8 l=0.5
X206 CSoutput.t55 a_n8964_8799.t93 vdd.t175 vdd.t161 sky130_fd_pr__pfet_01v8 ad=1.32 pd=8.33 as=1.32 ps=8.33 w=8 l=0.5
X207 commonsourceibias.t5 commonsourceibias.t4 gnd.t262 gnd.t245 sky130_fd_pr__nfet_01v8 ad=1.155 pd=7.33 as=1.155 ps=7.33 w=7 l=1
X208 a_n2982_13878.t11 minus.t19 a_n2903_n3924.t13 gnd.t43 sky130_fd_pr__nfet_01v8 ad=1.155 pd=7.33 as=1.155 ps=7.33 w=7 l=0.5
X209 diffpairibias.t9 diffpairibias.t8 gnd.t322 gnd.t321 sky130_fd_pr__nfet_01v8 ad=2.73 pd=14.78 as=2.73 ps=14.78 w=7 l=1
X210 a_n2804_13878.t5 a_n2982_13878.t90 vdd.t211 vdd.t210 sky130_fd_pr__pfet_01v8 ad=1.485 pd=9.33 as=1.485 ps=9.33 w=9 l=0.5
X211 vdd.t227 a_n2982_13878.t91 a_n2804_13878.t4 vdd.t226 sky130_fd_pr__pfet_01v8 ad=1.485 pd=9.33 as=1.485 ps=9.33 w=9 l=0.5
X212 CSoutput.t94 commonsourceibias.t93 gnd.t258 gnd.t227 sky130_fd_pr__nfet_01v8 ad=1.155 pd=7.33 as=1.155 ps=7.33 w=7 l=1
X213 CSoutput.t93 commonsourceibias.t94 gnd.t261 gnd.t199 sky130_fd_pr__nfet_01v8 ad=1.155 pd=7.33 as=1.155 ps=7.33 w=7 l=1
X214 CSoutput.t144 a_n8964_8799.t94 vdd.t251 vdd.t189 sky130_fd_pr__pfet_01v8 ad=1.32 pd=8.33 as=1.32 ps=8.33 w=8 l=0.5
X215 output.t7 CSoutput.t179 vdd.t109 gnd.t17 sky130_fd_pr__nfet_01v8 ad=0.825 pd=5.33 as=0.825 ps=5.33 w=5 l=1
X216 a_n2903_n3924.t31 plus.t14 a_n8964_8799.t13 gnd.t21 sky130_fd_pr__nfet_01v8 ad=1.155 pd=7.33 as=1.155 ps=7.33 w=7 l=0.5
X217 gnd.t260 commonsourceibias.t2 commonsourceibias.t3 gnd.t259 sky130_fd_pr__nfet_01v8 ad=1.155 pd=7.33 as=1.155 ps=7.33 w=7 l=1
X218 vdd.t120 CSoutput.t180 output.t6 gnd.t53 sky130_fd_pr__nfet_01v8 ad=0.825 pd=5.33 as=1.95 ps=10.78 w=5 l=1
X219 vdd.t252 a_n8964_8799.t95 CSoutput.t145 vdd.t25 sky130_fd_pr__pfet_01v8 ad=3.12 pd=16.78 as=1.32 ps=8.33 w=8 l=0.5
X220 vdd.t125 a_n8964_8799.t96 CSoutput.t18 vdd.t8 sky130_fd_pr__pfet_01v8 ad=1.32 pd=8.33 as=1.32 ps=8.33 w=8 l=0.5
X221 vdd.t127 a_n8964_8799.t97 CSoutput.t19 vdd.t126 sky130_fd_pr__pfet_01v8 ad=1.32 pd=8.33 as=1.32 ps=8.33 w=8 l=0.5
X222 commonsourceibias.t1 commonsourceibias.t0 gnd.t257 gnd.t256 sky130_fd_pr__nfet_01v8 ad=1.155 pd=7.33 as=1.155 ps=7.33 w=7 l=1
X223 CSoutput.t44 a_n8964_8799.t98 vdd.t163 vdd.t149 sky130_fd_pr__pfet_01v8 ad=1.32 pd=8.33 as=1.32 ps=8.33 w=8 l=0.5
X224 a_n2903_n3924.t8 minus.t20 a_n2982_13878.t7 gnd.t25 sky130_fd_pr__nfet_01v8 ad=1.155 pd=7.33 as=1.155 ps=7.33 w=7 l=0.5
X225 a_n2804_13878.t16 a_n2982_13878.t24 a_n2982_13878.t25 vdd.t225 sky130_fd_pr__pfet_01v8 ad=1.485 pd=9.33 as=1.485 ps=9.33 w=9 l=0.5
X226 a_n2903_n3924.t30 plus.t15 a_n8964_8799.t16 gnd.t42 sky130_fd_pr__nfet_01v8 ad=1.155 pd=7.33 as=1.155 ps=7.33 w=7 l=0.5
X227 gnd.t255 commonsourceibias.t95 CSoutput.t92 gnd.t212 sky130_fd_pr__nfet_01v8 ad=1.155 pd=7.33 as=1.155 ps=7.33 w=7 l=1
X228 a_n2903_n3924.t14 minus.t21 a_n2982_13878.t12 gnd.t22 sky130_fd_pr__nfet_01v8 ad=1.155 pd=7.33 as=1.155 ps=7.33 w=7 l=0.5
X229 commonsourceibias.t27 commonsourceibias.t26 gnd.t254 gnd.t206 sky130_fd_pr__nfet_01v8 ad=1.155 pd=7.33 as=2.73 ps=14.78 w=7 l=1
X230 a_n8964_8799.t1 plus.t16 a_n2903_n3924.t29 gnd.t4 sky130_fd_pr__nfet_01v8 ad=1.155 pd=7.33 as=1.155 ps=7.33 w=7 l=0.5
X231 vdd.t164 a_n8964_8799.t99 CSoutput.t45 vdd.t23 sky130_fd_pr__pfet_01v8 ad=1.32 pd=8.33 as=1.32 ps=8.33 w=8 l=0.5
X232 vdd.t115 CSoutput.t181 output.t5 gnd.t54 sky130_fd_pr__nfet_01v8 ad=0.825 pd=5.33 as=0.825 ps=5.33 w=5 l=1
X233 outputibias.t5 outputibias.t4 gnd.t45 gnd.t44 sky130_fd_pr__nfet_01v8 ad=2.34 pd=12.78 as=2.34 ps=12.78 w=6 l=2
X234 gnd.t253 commonsourceibias.t24 commonsourceibias.t25 gnd.t208 sky130_fd_pr__nfet_01v8 ad=1.155 pd=7.33 as=1.155 ps=7.33 w=7 l=1
X235 a_n2982_8322.t17 a_n2982_13878.t92 a_n8964_8799.t34 vdd.t191 sky130_fd_pr__pfet_01v8 ad=1.485 pd=9.33 as=1.485 ps=9.33 w=9 l=0.5
X236 a_n2982_13878.t69 a_n2982_13878.t68 a_n2804_13878.t15 vdd.t224 sky130_fd_pr__pfet_01v8 ad=1.485 pd=9.33 as=1.485 ps=9.33 w=9 l=0.5
X237 CSoutput.t64 a_n8964_8799.t100 vdd.t185 vdd.t142 sky130_fd_pr__pfet_01v8 ad=1.32 pd=8.33 as=3.12 ps=16.78 w=8 l=0.5
X238 diffpairibias.t7 diffpairibias.t6 gnd.t318 gnd.t317 sky130_fd_pr__nfet_01v8 ad=2.73 pd=14.78 as=2.73 ps=14.78 w=7 l=1
X239 gnd.t138 gnd.t136 gnd.t137 gnd.t93 sky130_fd_pr__nfet_01v8 ad=2.73 pd=14.78 as=0 ps=0 w=7 l=1
X240 vdd.t187 a_n8964_8799.t101 CSoutput.t65 vdd.t186 sky130_fd_pr__pfet_01v8 ad=3.12 pd=16.78 as=1.32 ps=8.33 w=8 l=0.5
X241 a_n2804_13878.t14 a_n2982_13878.t60 a_n2982_13878.t61 vdd.t223 sky130_fd_pr__pfet_01v8 ad=1.485 pd=9.33 as=1.485 ps=9.33 w=9 l=0.5
X242 commonsourceibias.t23 commonsourceibias.t22 gnd.t252 gnd.t243 sky130_fd_pr__nfet_01v8 ad=1.155 pd=7.33 as=2.73 ps=14.78 w=7 l=1
X243 CSoutput.t182 a_n2982_8322.t2 sky130_fd_pr__cap_mim_m3_1 l=12 w=12
X244 vdd.t222 a_n2982_13878.t93 a_n2982_8322.t33 vdd.t221 sky130_fd_pr__pfet_01v8 ad=1.485 pd=9.33 as=3.51 ps=18.78 w=9 l=0.5
X245 vdd.t257 a_n8964_8799.t102 CSoutput.t150 vdd.t4 sky130_fd_pr__pfet_01v8 ad=1.32 pd=8.33 as=1.32 ps=8.33 w=8 l=0.5
X246 gnd.t251 commonsourceibias.t96 CSoutput.t91 gnd.t212 sky130_fd_pr__nfet_01v8 ad=1.155 pd=7.33 as=1.155 ps=7.33 w=7 l=1
X247 CSoutput.t151 a_n8964_8799.t103 vdd.t258 vdd.t144 sky130_fd_pr__pfet_01v8 ad=1.32 pd=8.33 as=1.32 ps=8.33 w=8 l=0.5