* NGSPICE file created from opamp283.ext - technology: sky130A

.subckt opamp283 gnd CSoutput output vdd plus minus commonsourceibias outputibias
+ diffpairibias
X0 a_n2804_13878.t29 a_n2982_13878.t25 a_n2982_13878.t26 vdd.t216 sky130_fd_pr__pfet_01v8 ad=1.485 pd=9.33 as=1.485 ps=9.33 w=9 l=0.5
X1 CSoutput.t151 commonsourceibias.t80 gnd.t355 gnd.t267 sky130_fd_pr__nfet_01v8 ad=1.155 pd=7.33 as=1.155 ps=7.33 w=7 l=1
X2 a_n2804_13878.t5 a_n2982_13878.t64 vdd.t229 vdd.t228 sky130_fd_pr__pfet_01v8 ad=1.485 pd=9.33 as=1.485 ps=9.33 w=9 l=0.5
X3 vdd.t232 a_n8300_8799.t40 CSoutput.t182 vdd.t136 sky130_fd_pr__pfet_01v8 ad=1.32 pd=8.33 as=1.32 ps=8.33 w=8 l=0.5
X4 gnd.t354 commonsourceibias.t81 CSoutput.t150 gnd.t253 sky130_fd_pr__nfet_01v8 ad=1.155 pd=7.33 as=1.155 ps=7.33 w=7 l=1
X5 a_n8300_8799.t7 plus.t5 a_n2903_n3924.t19 gnd.t367 sky130_fd_pr__nfet_01v8 ad=1.155 pd=7.33 as=1.155 ps=7.33 w=7 l=0.9
X6 CSoutput.t149 commonsourceibias.t82 gnd.t353 gnd.t224 sky130_fd_pr__nfet_01v8 ad=1.155 pd=7.33 as=1.155 ps=7.33 w=7 l=1
X7 CSoutput.t148 commonsourceibias.t83 gnd.t352 gnd.t162 sky130_fd_pr__nfet_01v8 ad=1.155 pd=7.33 as=1.155 ps=7.33 w=7 l=1
X8 CSoutput.t183 a_n8300_8799.t41 vdd.t233 vdd.t121 sky130_fd_pr__pfet_01v8 ad=1.32 pd=8.33 as=3.12 ps=16.78 w=8 l=0.5
X9 gnd.t351 commonsourceibias.t84 CSoutput.t147 gnd.t275 sky130_fd_pr__nfet_01v8 ad=1.155 pd=7.33 as=1.155 ps=7.33 w=7 l=1
X10 CSoutput.t192 a_n2982_8322.t37 sky130_fd_pr__cap_mim_m3_1 l=12 w=12
X11 minus.t4 gnd.t151 gnd.t153 gnd.t152 sky130_fd_pr__nfet_01v8 ad=0.165 pd=1.33 as=0.165 ps=1.33 w=1 l=0.5
X12 a_n2982_8322.t31 a_n2982_13878.t65 a_n8300_8799.t22 vdd.t226 sky130_fd_pr__pfet_01v8 ad=1.485 pd=9.33 as=1.485 ps=9.33 w=9 l=0.5
X13 vdd.t172 CSoutput.t193 output.t18 gnd.t382 sky130_fd_pr__nfet_01v8 ad=0.825 pd=5.33 as=0.825 ps=5.33 w=5 l=1
X14 CSoutput.t188 a_n8300_8799.t42 vdd.t238 vdd.t11 sky130_fd_pr__pfet_01v8 ad=1.32 pd=8.33 as=1.32 ps=8.33 w=8 l=0.5
X15 CSoutput.t146 commonsourceibias.t85 gnd.t350 gnd.t201 sky130_fd_pr__nfet_01v8 ad=1.155 pd=7.33 as=1.155 ps=7.33 w=7 l=1
X16 gnd.t345 commonsourceibias.t86 CSoutput.t145 gnd.t171 sky130_fd_pr__nfet_01v8 ad=1.155 pd=7.33 as=1.155 ps=7.33 w=7 l=1
X17 CSoutput.t144 commonsourceibias.t87 gnd.t349 gnd.t251 sky130_fd_pr__nfet_01v8 ad=1.155 pd=7.33 as=1.155 ps=7.33 w=7 l=1
X18 gnd.t348 commonsourceibias.t88 CSoutput.t143 gnd.t198 sky130_fd_pr__nfet_01v8 ad=2.73 pd=14.78 as=1.155 ps=7.33 w=7 l=1
X19 vdd.t239 a_n8300_8799.t43 CSoutput.t189 vdd.t23 sky130_fd_pr__pfet_01v8 ad=3.12 pd=16.78 as=1.32 ps=8.33 w=8 l=0.5
X20 CSoutput.t142 commonsourceibias.t89 gnd.t347 gnd.t251 sky130_fd_pr__nfet_01v8 ad=1.155 pd=7.33 as=1.155 ps=7.33 w=7 l=1
X21 CSoutput.t141 commonsourceibias.t90 gnd.t346 gnd.t277 sky130_fd_pr__nfet_01v8 ad=1.155 pd=7.33 as=1.155 ps=7.33 w=7 l=1
X22 gnd.t344 commonsourceibias.t91 CSoutput.t140 gnd.t232 sky130_fd_pr__nfet_01v8 ad=1.155 pd=7.33 as=1.155 ps=7.33 w=7 l=1
X23 gnd.t150 gnd.t147 gnd.t149 gnd.t148 sky130_fd_pr__nfet_01v8 ad=2.34 pd=12.78 as=0 ps=0 w=6 l=2
X24 gnd.t146 gnd.t144 gnd.t145 gnd.t57 sky130_fd_pr__nfet_01v8 ad=2.73 pd=14.78 as=0 ps=0 w=7 l=1
X25 commonsourceibias.t1 commonsourceibias.t0 gnd.t343 gnd.t201 sky130_fd_pr__nfet_01v8 ad=1.155 pd=7.33 as=1.155 ps=7.33 w=7 l=1
X26 a_n2982_13878.t63 minus.t5 a_n2903_n3924.t38 gnd.t356 sky130_fd_pr__nfet_01v8 ad=1.155 pd=7.33 as=1.155 ps=7.33 w=7 l=0.9
X27 CSoutput.t139 commonsourceibias.t92 gnd.t342 gnd.t162 sky130_fd_pr__nfet_01v8 ad=1.155 pd=7.33 as=1.155 ps=7.33 w=7 l=1
X28 gnd.t143 gnd.t141 gnd.t142 gnd.t53 sky130_fd_pr__nfet_01v8 ad=2.73 pd=14.78 as=0 ps=0 w=7 l=1
X29 a_n8300_8799.t10 plus.t6 a_n2903_n3924.t18 gnd.t9 sky130_fd_pr__nfet_01v8 ad=1.155 pd=7.33 as=1.155 ps=7.33 w=7 l=0.9
X30 a_n8300_8799.t32 a_n2982_13878.t66 a_n2982_8322.t30 vdd.t212 sky130_fd_pr__pfet_01v8 ad=1.485 pd=9.33 as=1.485 ps=9.33 w=9 l=0.5
X31 a_n2982_13878.t7 minus.t6 a_n2903_n3924.t26 gnd.t24 sky130_fd_pr__nfet_01v8 ad=1.155 pd=7.33 as=1.155 ps=7.33 w=7 l=0.9
X32 vdd.t169 a_n8300_8799.t44 CSoutput.t178 vdd.t18 sky130_fd_pr__pfet_01v8 ad=1.32 pd=8.33 as=1.32 ps=8.33 w=8 l=0.5
X33 vdd.t170 a_n8300_8799.t45 CSoutput.t179 vdd.t147 sky130_fd_pr__pfet_01v8 ad=1.32 pd=8.33 as=1.32 ps=8.33 w=8 l=0.5
X34 a_n8300_8799.t11 a_n2982_13878.t67 a_n2982_8322.t29 vdd.t175 sky130_fd_pr__pfet_01v8 ad=1.485 pd=9.33 as=3.51 ps=18.78 w=9 l=0.5
X35 CSoutput.t138 commonsourceibias.t93 gnd.t341 gnd.t267 sky130_fd_pr__nfet_01v8 ad=1.155 pd=7.33 as=1.155 ps=7.33 w=7 l=1
X36 gnd.t340 commonsourceibias.t94 CSoutput.t137 gnd.t241 sky130_fd_pr__nfet_01v8 ad=1.155 pd=7.33 as=1.155 ps=7.33 w=7 l=1
X37 gnd.t140 gnd.t138 gnd.t139 gnd.t68 sky130_fd_pr__nfet_01v8 ad=2.73 pd=14.78 as=0 ps=0 w=7 l=1
X38 CSoutput.t136 commonsourceibias.t95 gnd.t321 gnd.t210 sky130_fd_pr__nfet_01v8 ad=1.155 pd=7.33 as=1.155 ps=7.33 w=7 l=1
X39 CSoutput.t135 commonsourceibias.t96 gnd.t320 gnd.t221 sky130_fd_pr__nfet_01v8 ad=1.155 pd=7.33 as=1.155 ps=7.33 w=7 l=1
X40 CSoutput.t134 commonsourceibias.t97 gnd.t339 gnd.t234 sky130_fd_pr__nfet_01v8 ad=1.155 pd=7.33 as=1.155 ps=7.33 w=7 l=1
X41 a_n2903_n3924.t17 plus.t7 a_n8300_8799.t38 gnd.t3 sky130_fd_pr__nfet_01v8 ad=2.73 pd=14.78 as=1.155 ps=7.33 w=7 l=0.9
X42 a_n2903_n3924.t36 diffpairibias.t16 gnd.t380 gnd.t379 sky130_fd_pr__nfet_01v8 ad=2.73 pd=14.78 as=2.73 ps=14.78 w=7 l=1
X43 gnd.t338 commonsourceibias.t98 CSoutput.t133 gnd.t173 sky130_fd_pr__nfet_01v8 ad=2.73 pd=14.78 as=1.155 ps=7.33 w=7 l=1
X44 a_n2903_n3924.t28 minus.t7 a_n2982_13878.t8 gnd.t21 sky130_fd_pr__nfet_01v8 ad=1.155 pd=7.33 as=1.155 ps=7.33 w=7 l=0.9
X45 CSoutput.t6 a_n8300_8799.t46 vdd.t17 vdd.t16 sky130_fd_pr__pfet_01v8 ad=1.32 pd=8.33 as=1.32 ps=8.33 w=8 l=0.5
X46 gnd.t322 commonsourceibias.t99 CSoutput.t132 gnd.t207 sky130_fd_pr__nfet_01v8 ad=1.155 pd=7.33 as=1.155 ps=7.33 w=7 l=1
X47 CSoutput.t131 commonsourceibias.t100 gnd.t337 gnd.t263 sky130_fd_pr__nfet_01v8 ad=1.155 pd=7.33 as=1.155 ps=7.33 w=7 l=1
X48 vdd.t19 a_n8300_8799.t47 CSoutput.t7 vdd.t18 sky130_fd_pr__pfet_01v8 ad=1.32 pd=8.33 as=1.32 ps=8.33 w=8 l=0.5
X49 CSoutput.t130 commonsourceibias.t101 gnd.t336 gnd.t184 sky130_fd_pr__nfet_01v8 ad=1.155 pd=7.33 as=2.73 ps=14.78 w=7 l=1
X50 gnd.t335 commonsourceibias.t70 commonsourceibias.t71 gnd.t203 sky130_fd_pr__nfet_01v8 ad=1.155 pd=7.33 as=1.155 ps=7.33 w=7 l=1
X51 CSoutput.t129 commonsourceibias.t102 gnd.t334 gnd.t234 sky130_fd_pr__nfet_01v8 ad=1.155 pd=7.33 as=1.155 ps=7.33 w=7 l=1
X52 gnd.t333 commonsourceibias.t103 CSoutput.t128 gnd.t258 sky130_fd_pr__nfet_01v8 ad=1.155 pd=7.33 as=1.155 ps=7.33 w=7 l=1
X53 a_n2804_13878.t28 a_n2982_13878.t31 a_n2982_13878.t32 vdd.t183 sky130_fd_pr__pfet_01v8 ad=1.485 pd=9.33 as=1.485 ps=9.33 w=9 l=0.5
X54 CSoutput.t127 commonsourceibias.t104 gnd.t331 gnd.t192 sky130_fd_pr__nfet_01v8 ad=1.155 pd=7.33 as=1.155 ps=7.33 w=7 l=1
X55 CSoutput.t126 commonsourceibias.t105 gnd.t332 gnd.t218 sky130_fd_pr__nfet_01v8 ad=1.155 pd=7.33 as=1.155 ps=7.33 w=7 l=1
X56 gnd.t330 commonsourceibias.t106 CSoutput.t125 gnd.t258 sky130_fd_pr__nfet_01v8 ad=1.155 pd=7.33 as=1.155 ps=7.33 w=7 l=1
X57 vdd.t173 CSoutput.t194 output.t17 gnd.t383 sky130_fd_pr__nfet_01v8 ad=0.825 pd=5.33 as=0.825 ps=5.33 w=5 l=1
X58 a_n2982_13878.t24 a_n2982_13878.t23 a_n2804_13878.t27 vdd.t196 sky130_fd_pr__pfet_01v8 ad=1.485 pd=9.33 as=1.485 ps=9.33 w=9 l=0.5
X59 CSoutput.t124 commonsourceibias.t107 gnd.t329 gnd.t175 sky130_fd_pr__nfet_01v8 ad=1.155 pd=7.33 as=1.155 ps=7.33 w=7 l=1
X60 gnd.t328 commonsourceibias.t108 CSoutput.t123 gnd.t253 sky130_fd_pr__nfet_01v8 ad=1.155 pd=7.33 as=1.155 ps=7.33 w=7 l=1
X61 CSoutput.t195 a_n2982_8322.t36 sky130_fd_pr__cap_mim_m3_1 l=12 w=12
X62 gnd.t137 gnd.t135 plus.t4 gnd.t136 sky130_fd_pr__nfet_01v8 ad=0.165 pd=1.33 as=0.39 ps=2.78 w=1 l=0.5
X63 CSoutput.t176 a_n8300_8799.t48 vdd.t167 vdd.t11 sky130_fd_pr__pfet_01v8 ad=1.32 pd=8.33 as=1.32 ps=8.33 w=8 l=0.5
X64 vdd.t100 vdd.t98 vdd.t99 vdd.t75 sky130_fd_pr__pfet_01v8 ad=3.51 pd=18.78 as=0 ps=0 w=9 l=0.5
X65 gnd.t327 commonsourceibias.t68 commonsourceibias.t69 gnd.t166 sky130_fd_pr__nfet_01v8 ad=1.155 pd=7.33 as=1.155 ps=7.33 w=7 l=1
X66 CSoutput.t122 commonsourceibias.t109 gnd.t326 gnd.t251 sky130_fd_pr__nfet_01v8 ad=1.155 pd=7.33 as=1.155 ps=7.33 w=7 l=1
X67 a_n2903_n3924.t16 plus.t8 a_n8300_8799.t36 gnd.t14 sky130_fd_pr__nfet_01v8 ad=1.155 pd=7.33 as=1.155 ps=7.33 w=7 l=0.9
X68 vdd.t168 a_n8300_8799.t49 CSoutput.t177 vdd.t23 sky130_fd_pr__pfet_01v8 ad=3.12 pd=16.78 as=1.32 ps=8.33 w=8 l=0.5
X69 gnd.t134 gnd.t132 gnd.t133 gnd.t68 sky130_fd_pr__nfet_01v8 ad=2.73 pd=14.78 as=0 ps=0 w=7 l=1
X70 CSoutput.t121 commonsourceibias.t110 gnd.t272 gnd.t218 sky130_fd_pr__nfet_01v8 ad=1.155 pd=7.33 as=1.155 ps=7.33 w=7 l=1
X71 diffpairibias.t15 diffpairibias.t14 gnd.t371 gnd.t370 sky130_fd_pr__nfet_01v8 ad=2.73 pd=14.78 as=2.73 ps=14.78 w=7 l=1
X72 gnd.t325 commonsourceibias.t111 CSoutput.t120 gnd.t156 sky130_fd_pr__nfet_01v8 ad=1.155 pd=7.33 as=1.155 ps=7.33 w=7 l=1
X73 a_n2982_13878.t54 a_n2982_13878.t53 a_n2804_13878.t26 vdd.t211 sky130_fd_pr__pfet_01v8 ad=1.485 pd=9.33 as=1.485 ps=9.33 w=9 l=0.5
X74 CSoutput.t119 commonsourceibias.t112 gnd.t324 gnd.t184 sky130_fd_pr__nfet_01v8 ad=1.155 pd=7.33 as=2.73 ps=14.78 w=7 l=1
X75 CSoutput.t118 commonsourceibias.t113 gnd.t323 gnd.t229 sky130_fd_pr__nfet_01v8 ad=1.155 pd=7.33 as=1.155 ps=7.33 w=7 l=1
X76 gnd.t319 commonsourceibias.t114 CSoutput.t117 gnd.t177 sky130_fd_pr__nfet_01v8 ad=1.155 pd=7.33 as=1.155 ps=7.33 w=7 l=1
X77 a_n8300_8799.t28 a_n2982_13878.t68 a_n2982_8322.t28 vdd.t206 sky130_fd_pr__pfet_01v8 ad=1.485 pd=9.33 as=1.485 ps=9.33 w=9 l=0.5
X78 gnd.t318 commonsourceibias.t115 CSoutput.t116 gnd.t213 sky130_fd_pr__nfet_01v8 ad=1.155 pd=7.33 as=1.155 ps=7.33 w=7 l=1
X79 CSoutput.t18 a_n8300_8799.t50 vdd.t115 vdd.t114 sky130_fd_pr__pfet_01v8 ad=1.32 pd=8.33 as=1.32 ps=8.33 w=8 l=0.5
X80 gnd.t317 commonsourceibias.t116 CSoutput.t115 gnd.t169 sky130_fd_pr__nfet_01v8 ad=1.155 pd=7.33 as=1.155 ps=7.33 w=7 l=1
X81 a_n2982_13878.t46 a_n2982_13878.t45 a_n2804_13878.t25 vdd.t227 sky130_fd_pr__pfet_01v8 ad=1.485 pd=9.33 as=1.485 ps=9.33 w=9 l=0.5
X82 vdd.t117 a_n8300_8799.t51 CSoutput.t19 vdd.t116 sky130_fd_pr__pfet_01v8 ad=1.32 pd=8.33 as=1.32 ps=8.33 w=8 l=0.5
X83 vdd.t148 a_n8300_8799.t52 CSoutput.t158 vdd.t147 sky130_fd_pr__pfet_01v8 ad=1.32 pd=8.33 as=1.32 ps=8.33 w=8 l=0.5
X84 a_n8300_8799.t12 a_n2982_13878.t69 a_n2982_8322.t27 vdd.t204 sky130_fd_pr__pfet_01v8 ad=1.485 pd=9.33 as=1.485 ps=9.33 w=9 l=0.5
X85 CSoutput.t114 commonsourceibias.t117 gnd.t316 gnd.t229 sky130_fd_pr__nfet_01v8 ad=1.155 pd=7.33 as=1.155 ps=7.33 w=7 l=1
X86 diffpairibias.t13 diffpairibias.t12 gnd.t374 gnd.t373 sky130_fd_pr__nfet_01v8 ad=2.73 pd=14.78 as=2.73 ps=14.78 w=7 l=1
X87 CSoutput.t159 a_n8300_8799.t53 vdd.t149 vdd.t110 sky130_fd_pr__pfet_01v8 ad=1.32 pd=8.33 as=1.32 ps=8.33 w=8 l=0.5
X88 gnd.t315 commonsourceibias.t50 commonsourceibias.t51 gnd.t216 sky130_fd_pr__nfet_01v8 ad=1.155 pd=7.33 as=1.155 ps=7.33 w=7 l=1
X89 gnd.t270 commonsourceibias.t118 CSoutput.t113 gnd.t232 sky130_fd_pr__nfet_01v8 ad=1.155 pd=7.33 as=1.155 ps=7.33 w=7 l=1
X90 a_n8300_8799.t15 a_n2982_13878.t70 a_n2982_8322.t26 vdd.t219 sky130_fd_pr__pfet_01v8 ad=1.485 pd=9.33 as=1.485 ps=9.33 w=9 l=0.5
X91 CSoutput.t112 commonsourceibias.t119 gnd.t314 gnd.t175 sky130_fd_pr__nfet_01v8 ad=1.155 pd=7.33 as=1.155 ps=7.33 w=7 l=1
X92 gnd.t313 commonsourceibias.t120 CSoutput.t111 gnd.t216 sky130_fd_pr__nfet_01v8 ad=1.155 pd=7.33 as=1.155 ps=7.33 w=7 l=1
X93 CSoutput.t110 commonsourceibias.t121 gnd.t312 gnd.t277 sky130_fd_pr__nfet_01v8 ad=1.155 pd=7.33 as=1.155 ps=7.33 w=7 l=1
X94 CSoutput.t109 commonsourceibias.t122 gnd.t271 gnd.t196 sky130_fd_pr__nfet_01v8 ad=1.155 pd=7.33 as=1.155 ps=7.33 w=7 l=1
X95 a_n2982_8322.t25 a_n2982_13878.t71 a_n8300_8799.t24 vdd.t227 sky130_fd_pr__pfet_01v8 ad=1.485 pd=9.33 as=1.485 ps=9.33 w=9 l=0.5
X96 CSoutput.t108 commonsourceibias.t123 gnd.t311 gnd.t186 sky130_fd_pr__nfet_01v8 ad=1.155 pd=7.33 as=1.155 ps=7.33 w=7 l=1
X97 gnd.t273 commonsourceibias.t124 CSoutput.t107 gnd.t241 sky130_fd_pr__nfet_01v8 ad=1.155 pd=7.33 as=1.155 ps=7.33 w=7 l=1
X98 vdd.t97 vdd.t95 vdd.t96 vdd.t62 sky130_fd_pr__pfet_01v8 ad=3.12 pd=16.78 as=0 ps=0 w=8 l=0.5
X99 CSoutput.t156 a_n8300_8799.t54 vdd.t145 vdd.t14 sky130_fd_pr__pfet_01v8 ad=1.32 pd=8.33 as=1.32 ps=8.33 w=8 l=0.5
X100 a_n2903_n3924.t30 minus.t8 a_n2982_13878.t9 gnd.t33 sky130_fd_pr__nfet_01v8 ad=1.155 pd=7.33 as=1.155 ps=7.33 w=7 l=0.9
X101 gnd.t310 commonsourceibias.t56 commonsourceibias.t57 gnd.t189 sky130_fd_pr__nfet_01v8 ad=1.155 pd=7.33 as=1.155 ps=7.33 w=7 l=1
X102 a_n2903_n3924.t15 plus.t9 a_n8300_8799.t37 gnd.t377 sky130_fd_pr__nfet_01v8 ad=2.73 pd=14.78 as=1.155 ps=7.33 w=7 l=0.9
X103 gnd.t309 commonsourceibias.t54 commonsourceibias.t55 gnd.t173 sky130_fd_pr__nfet_01v8 ad=2.73 pd=14.78 as=1.155 ps=7.33 w=7 l=1
X104 CSoutput.t106 commonsourceibias.t125 gnd.t308 gnd.t263 sky130_fd_pr__nfet_01v8 ad=1.155 pd=7.33 as=1.155 ps=7.33 w=7 l=1
X105 vdd.t0 CSoutput.t196 output.t16 gnd.t0 sky130_fd_pr__nfet_01v8 ad=0.825 pd=5.33 as=0.825 ps=5.33 w=5 l=1
X106 output.t15 CSoutput.t197 vdd.t171 gnd.t381 sky130_fd_pr__nfet_01v8 ad=0.825 pd=5.33 as=0.825 ps=5.33 w=5 l=1
X107 CSoutput.t105 commonsourceibias.t126 gnd.t307 gnd.t192 sky130_fd_pr__nfet_01v8 ad=1.155 pd=7.33 as=1.155 ps=7.33 w=7 l=1
X108 gnd.t306 commonsourceibias.t127 CSoutput.t104 gnd.t216 sky130_fd_pr__nfet_01v8 ad=1.155 pd=7.33 as=1.155 ps=7.33 w=7 l=1
X109 a_n2903_n3924.t37 diffpairibias.t17 gnd.t391 gnd.t390 sky130_fd_pr__nfet_01v8 ad=2.73 pd=14.78 as=2.73 ps=14.78 w=7 l=1
X110 CSoutput.t198 a_n2982_8322.t35 sky130_fd_pr__cap_mim_m3_1 l=12 w=12
X111 vdd.t146 a_n8300_8799.t55 CSoutput.t157 vdd.t127 sky130_fd_pr__pfet_01v8 ad=1.32 pd=8.33 as=1.32 ps=8.33 w=8 l=0.5
X112 gnd.t131 gnd.t129 gnd.t130 gnd.t49 sky130_fd_pr__nfet_01v8 ad=2.73 pd=14.78 as=0 ps=0 w=7 l=1
X113 vdd.t163 a_n8300_8799.t56 CSoutput.t172 vdd.t3 sky130_fd_pr__pfet_01v8 ad=1.32 pd=8.33 as=1.32 ps=8.33 w=8 l=0.5
X114 a_n2982_13878.t38 a_n2982_13878.t37 a_n2804_13878.t24 vdd.t226 sky130_fd_pr__pfet_01v8 ad=1.485 pd=9.33 as=1.485 ps=9.33 w=9 l=0.5
X115 a_n2903_n3924.t14 plus.t10 a_n8300_8799.t8 gnd.t372 sky130_fd_pr__nfet_01v8 ad=1.155 pd=7.33 as=1.155 ps=7.33 w=7 l=0.9
X116 vdd.t164 a_n8300_8799.t57 CSoutput.t173 vdd.t5 sky130_fd_pr__pfet_01v8 ad=1.32 pd=8.33 as=1.32 ps=8.33 w=8 l=0.5
X117 gnd.t305 commonsourceibias.t128 CSoutput.t103 gnd.t207 sky130_fd_pr__nfet_01v8 ad=1.155 pd=7.33 as=1.155 ps=7.33 w=7 l=1
X118 gnd.t128 gnd.t125 gnd.t127 gnd.t126 sky130_fd_pr__nfet_01v8 ad=1.95 pd=10.78 as=0 ps=0 w=5 l=1
X119 a_n8300_8799.t17 a_n2982_13878.t72 a_n2982_8322.t24 vdd.t215 sky130_fd_pr__pfet_01v8 ad=1.485 pd=9.33 as=1.485 ps=9.33 w=9 l=0.5
X120 a_n2982_13878.t18 a_n2982_13878.t17 a_n2804_13878.t23 vdd.t178 sky130_fd_pr__pfet_01v8 ad=3.51 pd=18.78 as=1.485 ps=9.33 w=9 l=0.5
X121 gnd.t124 gnd.t122 gnd.t123 gnd.t49 sky130_fd_pr__nfet_01v8 ad=2.73 pd=14.78 as=0 ps=0 w=7 l=1
X122 gnd.t304 commonsourceibias.t129 CSoutput.t102 gnd.t156 sky130_fd_pr__nfet_01v8 ad=1.155 pd=7.33 as=1.155 ps=7.33 w=7 l=1
X123 CSoutput.t101 commonsourceibias.t130 gnd.t293 gnd.t221 sky130_fd_pr__nfet_01v8 ad=1.155 pd=7.33 as=1.155 ps=7.33 w=7 l=1
X124 commonsourceibias.t53 commonsourceibias.t52 gnd.t303 gnd.t192 sky130_fd_pr__nfet_01v8 ad=1.155 pd=7.33 as=1.155 ps=7.33 w=7 l=1
X125 gnd.t302 commonsourceibias.t131 CSoutput.t100 gnd.t158 sky130_fd_pr__nfet_01v8 ad=1.155 pd=7.33 as=1.155 ps=7.33 w=7 l=1
X126 gnd.t301 commonsourceibias.t132 CSoutput.t99 gnd.t182 sky130_fd_pr__nfet_01v8 ad=1.155 pd=7.33 as=1.155 ps=7.33 w=7 l=1
X127 vdd.t94 vdd.t92 vdd.t93 vdd.t82 sky130_fd_pr__pfet_01v8 ad=3.51 pd=18.78 as=0 ps=0 w=9 l=0.5
X128 gnd.t300 commonsourceibias.t60 commonsourceibias.t61 gnd.t171 sky130_fd_pr__nfet_01v8 ad=1.155 pd=7.33 as=1.155 ps=7.33 w=7 l=1
X129 gnd.t299 commonsourceibias.t133 CSoutput.t98 gnd.t203 sky130_fd_pr__nfet_01v8 ad=1.155 pd=7.33 as=1.155 ps=7.33 w=7 l=1
X130 CSoutput.t16 a_n8300_8799.t58 vdd.t111 vdd.t110 sky130_fd_pr__pfet_01v8 ad=1.32 pd=8.33 as=1.32 ps=8.33 w=8 l=0.5
X131 vdd.t91 vdd.t88 vdd.t90 vdd.t89 sky130_fd_pr__pfet_01v8 ad=3.51 pd=18.78 as=0 ps=0 w=9 l=0.5
X132 a_n2804_13878.t22 a_n2982_13878.t59 a_n2982_13878.t60 vdd.t188 sky130_fd_pr__pfet_01v8 ad=1.485 pd=9.33 as=3.51 ps=18.78 w=9 l=0.5
X133 CSoutput.t17 a_n8300_8799.t59 vdd.t113 vdd.t112 sky130_fd_pr__pfet_01v8 ad=1.32 pd=8.33 as=1.32 ps=8.33 w=8 l=0.5
X134 gnd.t121 gnd.t119 gnd.t120 gnd.t53 sky130_fd_pr__nfet_01v8 ad=2.73 pd=14.78 as=0 ps=0 w=7 l=1
X135 vdd.t13 a_n8300_8799.t60 CSoutput.t4 vdd.t3 sky130_fd_pr__pfet_01v8 ad=1.32 pd=8.33 as=1.32 ps=8.33 w=8 l=0.5
X136 vdd.t225 a_n2982_13878.t73 a_n2982_8322.t7 vdd.t224 sky130_fd_pr__pfet_01v8 ad=1.485 pd=9.33 as=1.485 ps=9.33 w=9 l=0.5
X137 a_n2982_13878.t36 a_n2982_13878.t35 a_n2804_13878.t21 vdd.t186 sky130_fd_pr__pfet_01v8 ad=1.485 pd=9.33 as=1.485 ps=9.33 w=9 l=0.5
X138 gnd.t118 gnd.t116 minus.t3 gnd.t117 sky130_fd_pr__nfet_01v8 ad=0.165 pd=1.33 as=0.39 ps=2.78 w=1 l=0.5
X139 vdd.t87 vdd.t85 vdd.t86 vdd.t62 sky130_fd_pr__pfet_01v8 ad=3.12 pd=16.78 as=0 ps=0 w=8 l=0.5
X140 CSoutput.t97 commonsourceibias.t134 gnd.t298 gnd.t194 sky130_fd_pr__nfet_01v8 ad=1.155 pd=7.33 as=2.73 ps=14.78 w=7 l=1
X141 a_n2982_8322.t6 a_n2982_13878.t74 vdd.t223 vdd.t222 sky130_fd_pr__pfet_01v8 ad=1.485 pd=9.33 as=1.485 ps=9.33 w=9 l=0.5
X142 gnd.t297 commonsourceibias.t135 CSoutput.t96 gnd.t232 sky130_fd_pr__nfet_01v8 ad=1.155 pd=7.33 as=1.155 ps=7.33 w=7 l=1
X143 a_n2903_n3924.t25 diffpairibias.t18 gnd.t32 gnd.t31 sky130_fd_pr__nfet_01v8 ad=2.73 pd=14.78 as=2.73 ps=14.78 w=7 l=1
X144 output.t14 CSoutput.t199 vdd.t118 gnd.t22 sky130_fd_pr__nfet_01v8 ad=0.825 pd=5.33 as=0.825 ps=5.33 w=5 l=1
X145 CSoutput.t5 a_n8300_8799.t61 vdd.t15 vdd.t14 sky130_fd_pr__pfet_01v8 ad=1.32 pd=8.33 as=1.32 ps=8.33 w=8 l=0.5
X146 vdd.t119 CSoutput.t200 output.t13 gnd.t23 sky130_fd_pr__nfet_01v8 ad=0.825 pd=5.33 as=0.825 ps=5.33 w=5 l=1
X147 gnd.t296 commonsourceibias.t136 CSoutput.t95 gnd.t258 sky130_fd_pr__nfet_01v8 ad=1.155 pd=7.33 as=1.155 ps=7.33 w=7 l=1
X148 gnd.t295 commonsourceibias.t58 commonsourceibias.t59 gnd.t177 sky130_fd_pr__nfet_01v8 ad=1.155 pd=7.33 as=1.155 ps=7.33 w=7 l=1
X149 CSoutput.t94 commonsourceibias.t137 gnd.t294 gnd.t277 sky130_fd_pr__nfet_01v8 ad=1.155 pd=7.33 as=1.155 ps=7.33 w=7 l=1
X150 gnd.t292 commonsourceibias.t138 CSoutput.t93 gnd.t189 sky130_fd_pr__nfet_01v8 ad=1.155 pd=7.33 as=1.155 ps=7.33 w=7 l=1
X151 CSoutput.t92 commonsourceibias.t139 gnd.t291 gnd.t160 sky130_fd_pr__nfet_01v8 ad=1.155 pd=7.33 as=1.155 ps=7.33 w=7 l=1
X152 CSoutput.t91 commonsourceibias.t140 gnd.t290 gnd.t194 sky130_fd_pr__nfet_01v8 ad=1.155 pd=7.33 as=2.73 ps=14.78 w=7 l=1
X153 CSoutput.t90 commonsourceibias.t141 gnd.t289 gnd.t267 sky130_fd_pr__nfet_01v8 ad=1.155 pd=7.33 as=1.155 ps=7.33 w=7 l=1
X154 gnd.t115 gnd.t113 gnd.t114 gnd.t64 sky130_fd_pr__nfet_01v8 ad=2.73 pd=14.78 as=0 ps=0 w=7 l=0.9
X155 vdd.t221 a_n2982_13878.t75 a_n2804_13878.t1 vdd.t220 sky130_fd_pr__pfet_01v8 ad=1.485 pd=9.33 as=1.485 ps=9.33 w=9 l=0.5
X156 vdd.t84 vdd.t81 vdd.t83 vdd.t82 sky130_fd_pr__pfet_01v8 ad=3.51 pd=18.78 as=0 ps=0 w=9 l=0.5
X157 vdd.t7 CSoutput.t201 output.t12 gnd.t7 sky130_fd_pr__nfet_01v8 ad=0.825 pd=5.33 as=0.825 ps=5.33 w=5 l=1
X158 gnd.t112 gnd.t110 gnd.t111 gnd.t49 sky130_fd_pr__nfet_01v8 ad=2.73 pd=14.78 as=0 ps=0 w=7 l=1
X159 a_n2804_13878.t20 a_n2982_13878.t29 a_n2982_13878.t30 vdd.t219 sky130_fd_pr__pfet_01v8 ad=1.485 pd=9.33 as=1.485 ps=9.33 w=9 l=0.5
X160 vdd.t4 a_n8300_8799.t62 CSoutput.t0 vdd.t3 sky130_fd_pr__pfet_01v8 ad=1.32 pd=8.33 as=1.32 ps=8.33 w=8 l=0.5
X161 vdd.t6 a_n8300_8799.t63 CSoutput.t1 vdd.t5 sky130_fd_pr__pfet_01v8 ad=1.32 pd=8.33 as=1.32 ps=8.33 w=8 l=0.5
X162 a_n2982_8322.t23 a_n2982_13878.t76 a_n8300_8799.t30 vdd.t205 sky130_fd_pr__pfet_01v8 ad=1.485 pd=9.33 as=1.485 ps=9.33 w=9 l=0.5
X163 a_n8300_8799.t1 plus.t11 a_n2903_n3924.t13 gnd.t12 sky130_fd_pr__nfet_01v8 ad=1.155 pd=7.33 as=2.73 ps=14.78 w=7 l=0.9
X164 vdd.t80 vdd.t78 vdd.t79 vdd.t44 sky130_fd_pr__pfet_01v8 ad=3.12 pd=16.78 as=0 ps=0 w=8 l=0.5
X165 vdd.t77 vdd.t74 vdd.t76 vdd.t75 sky130_fd_pr__pfet_01v8 ad=3.51 pd=18.78 as=0 ps=0 w=9 l=0.5
X166 a_n2982_8322.t5 a_n2982_13878.t77 vdd.t218 vdd.t217 sky130_fd_pr__pfet_01v8 ad=3.51 pd=18.78 as=1.485 ps=9.33 w=9 l=0.5
X167 a_n8300_8799.t20 a_n2982_13878.t78 a_n2982_8322.t22 vdd.t185 sky130_fd_pr__pfet_01v8 ad=1.485 pd=9.33 as=1.485 ps=9.33 w=9 l=0.5
X168 a_n8300_8799.t9 plus.t12 a_n2903_n3924.t12 gnd.t10 sky130_fd_pr__nfet_01v8 ad=1.155 pd=7.33 as=2.73 ps=14.78 w=7 l=0.9
X169 CSoutput.t174 a_n8300_8799.t64 vdd.t165 vdd.t123 sky130_fd_pr__pfet_01v8 ad=1.32 pd=8.33 as=1.32 ps=8.33 w=8 l=0.5
X170 diffpairibias.t11 diffpairibias.t10 gnd.t18 gnd.t17 sky130_fd_pr__nfet_01v8 ad=2.73 pd=14.78 as=2.73 ps=14.78 w=7 l=1
X171 vdd.t166 a_n8300_8799.t65 CSoutput.t175 vdd.t147 sky130_fd_pr__pfet_01v8 ad=1.32 pd=8.33 as=1.32 ps=8.33 w=8 l=0.5
X172 a_n2982_13878.t48 a_n2982_13878.t47 a_n2804_13878.t19 vdd.t199 sky130_fd_pr__pfet_01v8 ad=1.485 pd=9.33 as=1.485 ps=9.33 w=9 l=0.5
X173 CSoutput.t89 commonsourceibias.t142 gnd.t288 gnd.t224 sky130_fd_pr__nfet_01v8 ad=1.155 pd=7.33 as=1.155 ps=7.33 w=7 l=1
X174 a_n8300_8799.t16 a_n2982_13878.t79 a_n2982_8322.t21 vdd.t216 sky130_fd_pr__pfet_01v8 ad=1.485 pd=9.33 as=1.485 ps=9.33 w=9 l=0.5
X175 commonsourceibias.t67 commonsourceibias.t66 gnd.t287 gnd.t162 sky130_fd_pr__nfet_01v8 ad=1.155 pd=7.33 as=1.155 ps=7.33 w=7 l=1
X176 output.t11 CSoutput.t202 vdd.t8 gnd.t8 sky130_fd_pr__nfet_01v8 ad=0.825 pd=5.33 as=0.825 ps=5.33 w=5 l=1
X177 gnd.t286 commonsourceibias.t143 CSoutput.t88 gnd.t253 sky130_fd_pr__nfet_01v8 ad=1.155 pd=7.33 as=1.155 ps=7.33 w=7 l=1
X178 a_n2804_13878.t18 a_n2982_13878.t41 a_n2982_13878.t42 vdd.t215 sky130_fd_pr__pfet_01v8 ad=1.485 pd=9.33 as=1.485 ps=9.33 w=9 l=0.5
X179 gnd.t109 gnd.t107 gnd.t108 gnd.t35 sky130_fd_pr__nfet_01v8 ad=2.73 pd=14.78 as=0 ps=0 w=7 l=0.9
X180 gnd.t285 commonsourceibias.t64 commonsourceibias.t65 gnd.t275 sky130_fd_pr__nfet_01v8 ad=1.155 pd=7.33 as=1.155 ps=7.33 w=7 l=1
X181 CSoutput.t87 commonsourceibias.t144 gnd.t284 gnd.t221 sky130_fd_pr__nfet_01v8 ad=1.155 pd=7.33 as=1.155 ps=7.33 w=7 l=1
X182 vdd.t73 vdd.t71 vdd.t72 vdd.t30 sky130_fd_pr__pfet_01v8 ad=3.51 pd=18.78 as=0 ps=0 w=9 l=0.5
X183 CSoutput.t30 a_n8300_8799.t66 vdd.t135 vdd.t114 sky130_fd_pr__pfet_01v8 ad=1.32 pd=8.33 as=1.32 ps=8.33 w=8 l=0.5
X184 output.t10 CSoutput.t203 vdd.t1 gnd.t1 sky130_fd_pr__nfet_01v8 ad=0.825 pd=5.33 as=0.825 ps=5.33 w=5 l=1
X185 CSoutput.t86 commonsourceibias.t145 gnd.t283 gnd.t218 sky130_fd_pr__nfet_01v8 ad=1.155 pd=7.33 as=1.155 ps=7.33 w=7 l=1
X186 vdd.t214 a_n2982_13878.t80 a_n2982_8322.t4 vdd.t213 sky130_fd_pr__pfet_01v8 ad=1.485 pd=9.33 as=3.51 ps=18.78 w=9 l=0.5
X187 a_n2804_13878.t17 a_n2982_13878.t49 a_n2982_13878.t50 vdd.t212 sky130_fd_pr__pfet_01v8 ad=1.485 pd=9.33 as=1.485 ps=9.33 w=9 l=0.5
X188 vdd.t137 a_n8300_8799.t67 CSoutput.t31 vdd.t136 sky130_fd_pr__pfet_01v8 ad=1.32 pd=8.33 as=1.32 ps=8.33 w=8 l=0.5
X189 gnd.t282 commonsourceibias.t146 CSoutput.t85 gnd.t182 sky130_fd_pr__nfet_01v8 ad=1.155 pd=7.33 as=1.155 ps=7.33 w=7 l=1
X190 gnd.t281 commonsourceibias.t147 CSoutput.t84 gnd.t275 sky130_fd_pr__nfet_01v8 ad=1.155 pd=7.33 as=1.155 ps=7.33 w=7 l=1
X191 a_n2982_13878.t13 minus.t9 a_n2903_n3924.t34 gnd.t367 sky130_fd_pr__nfet_01v8 ad=1.155 pd=7.33 as=1.155 ps=7.33 w=7 l=0.9
X192 a_n2903_n3924.t11 plus.t13 a_n8300_8799.t39 gnd.t378 sky130_fd_pr__nfet_01v8 ad=1.155 pd=7.33 as=1.155 ps=7.33 w=7 l=0.9
X193 a_n2982_13878.t62 a_n2982_13878.t61 a_n2804_13878.t16 vdd.t182 sky130_fd_pr__pfet_01v8 ad=1.485 pd=9.33 as=1.485 ps=9.33 w=9 l=0.5
X194 gnd.t280 commonsourceibias.t148 CSoutput.t83 gnd.t213 sky130_fd_pr__nfet_01v8 ad=1.155 pd=7.33 as=1.155 ps=7.33 w=7 l=1
X195 gnd.t279 commonsourceibias.t149 CSoutput.t82 gnd.t241 sky130_fd_pr__nfet_01v8 ad=1.155 pd=7.33 as=1.155 ps=7.33 w=7 l=1
X196 commonsourceibias.t63 commonsourceibias.t62 gnd.t278 gnd.t277 sky130_fd_pr__nfet_01v8 ad=1.155 pd=7.33 as=1.155 ps=7.33 w=7 l=1
X197 gnd.t276 commonsourceibias.t150 CSoutput.t81 gnd.t275 sky130_fd_pr__nfet_01v8 ad=1.155 pd=7.33 as=1.155 ps=7.33 w=7 l=1
X198 gnd.t106 gnd.t104 gnd.t105 gnd.t57 sky130_fd_pr__nfet_01v8 ad=2.73 pd=14.78 as=0 ps=0 w=7 l=1
X199 gnd.t274 commonsourceibias.t151 CSoutput.t80 gnd.t198 sky130_fd_pr__nfet_01v8 ad=2.73 pd=14.78 as=1.155 ps=7.33 w=7 l=1
X200 plus.t3 gnd.t101 gnd.t103 gnd.t102 sky130_fd_pr__nfet_01v8 ad=0.165 pd=1.33 as=0.165 ps=1.33 w=1 l=0.5
X201 vdd.t155 a_n8300_8799.t68 CSoutput.t164 vdd.t154 sky130_fd_pr__pfet_01v8 ad=1.32 pd=8.33 as=1.32 ps=8.33 w=8 l=0.5
X202 CSoutput.t79 commonsourceibias.t152 gnd.t269 gnd.t210 sky130_fd_pr__nfet_01v8 ad=1.155 pd=7.33 as=1.155 ps=7.33 w=7 l=1
X203 a_n2903_n3924.t27 diffpairibias.t19 gnd.t360 gnd.t359 sky130_fd_pr__nfet_01v8 ad=2.73 pd=14.78 as=2.73 ps=14.78 w=7 l=1
X204 gnd.t100 gnd.t98 minus.t2 gnd.t99 sky130_fd_pr__nfet_01v8 ad=0.165 pd=1.33 as=0.165 ps=1.33 w=1 l=0.5
X205 gnd.t97 gnd.t94 gnd.t96 gnd.t95 sky130_fd_pr__nfet_01v8 ad=2.73 pd=14.78 as=0 ps=0 w=7 l=1
X206 a_n2903_n3924.t23 diffpairibias.t20 gnd.t29 gnd.t28 sky130_fd_pr__nfet_01v8 ad=2.73 pd=14.78 as=2.73 ps=14.78 w=7 l=1
X207 commonsourceibias.t75 commonsourceibias.t74 gnd.t268 gnd.t267 sky130_fd_pr__nfet_01v8 ad=1.155 pd=7.33 as=1.155 ps=7.33 w=7 l=1
X208 a_n8300_8799.t4 plus.t14 a_n2903_n3924.t10 gnd.t30 sky130_fd_pr__nfet_01v8 ad=1.155 pd=7.33 as=1.155 ps=7.33 w=7 l=0.9
X209 vdd.t156 a_n8300_8799.t69 CSoutput.t165 vdd.t127 sky130_fd_pr__pfet_01v8 ad=1.32 pd=8.33 as=1.32 ps=8.33 w=8 l=0.5
X210 gnd.t93 gnd.t91 gnd.t92 gnd.t68 sky130_fd_pr__nfet_01v8 ad=2.73 pd=14.78 as=0 ps=0 w=7 l=1
X211 vdd.t70 vdd.t68 vdd.t69 vdd.t44 sky130_fd_pr__pfet_01v8 ad=3.12 pd=16.78 as=0 ps=0 w=8 l=0.5
X212 CSoutput.t78 commonsourceibias.t153 gnd.t266 gnd.t224 sky130_fd_pr__nfet_01v8 ad=1.155 pd=7.33 as=1.155 ps=7.33 w=7 l=1
X213 a_n8300_8799.t3 plus.t15 a_n2903_n3924.t9 gnd.t24 sky130_fd_pr__nfet_01v8 ad=1.155 pd=7.33 as=1.155 ps=7.33 w=7 l=0.9
X214 CSoutput.t77 commonsourceibias.t154 gnd.t260 gnd.t196 sky130_fd_pr__nfet_01v8 ad=1.155 pd=7.33 as=1.155 ps=7.33 w=7 l=1
X215 a_n2804_13878.t15 a_n2982_13878.t51 a_n2982_13878.t52 vdd.t187 sky130_fd_pr__pfet_01v8 ad=1.485 pd=9.33 as=1.485 ps=9.33 w=9 l=0.5
X216 commonsourceibias.t73 commonsourceibias.t72 gnd.t265 gnd.t263 sky130_fd_pr__nfet_01v8 ad=1.155 pd=7.33 as=1.155 ps=7.33 w=7 l=1
X217 gnd.t90 gnd.t87 gnd.t89 gnd.t88 sky130_fd_pr__nfet_01v8 ad=1.95 pd=10.78 as=0 ps=0 w=5 l=1
X218 a_n2982_8322.t20 a_n2982_13878.t81 a_n8300_8799.t21 vdd.t211 sky130_fd_pr__pfet_01v8 ad=1.485 pd=9.33 as=1.485 ps=9.33 w=9 l=0.5
X219 output.t0 outputibias.t8 gnd.t20 gnd.t19 sky130_fd_pr__nfet_01v8 ad=2.34 pd=12.78 as=2.34 ps=12.78 w=6 l=2
X220 CSoutput.t28 a_n8300_8799.t70 vdd.t133 vdd.t105 sky130_fd_pr__pfet_01v8 ad=1.32 pd=8.33 as=1.32 ps=8.33 w=8 l=0.5
X221 CSoutput.t76 commonsourceibias.t155 gnd.t264 gnd.t263 sky130_fd_pr__nfet_01v8 ad=1.155 pd=7.33 as=1.155 ps=7.33 w=7 l=1
X222 commonsourceibias.t23 commonsourceibias.t22 gnd.t262 gnd.t234 sky130_fd_pr__nfet_01v8 ad=1.155 pd=7.33 as=1.155 ps=7.33 w=7 l=1
X223 CSoutput.t75 commonsourceibias.t156 gnd.t261 gnd.t186 sky130_fd_pr__nfet_01v8 ad=1.155 pd=7.33 as=1.155 ps=7.33 w=7 l=1
X224 outputibias.t7 outputibias.t6 gnd.t362 gnd.t361 sky130_fd_pr__nfet_01v8 ad=2.34 pd=12.78 as=2.34 ps=12.78 w=6 l=2
X225 gnd.t259 commonsourceibias.t20 commonsourceibias.t21 gnd.t258 sky130_fd_pr__nfet_01v8 ad=1.155 pd=7.33 as=1.155 ps=7.33 w=7 l=1
X226 vdd.t2 CSoutput.t204 output.t9 gnd.t2 sky130_fd_pr__nfet_01v8 ad=0.825 pd=5.33 as=0.825 ps=5.33 w=5 l=1
X227 diffpairibias.t9 diffpairibias.t8 gnd.t5 gnd.t4 sky130_fd_pr__nfet_01v8 ad=2.73 pd=14.78 as=2.73 ps=14.78 w=7 l=1
X228 a_n2804_13878.t2 a_n2982_13878.t82 vdd.t210 vdd.t209 sky130_fd_pr__pfet_01v8 ad=1.485 pd=9.33 as=1.485 ps=9.33 w=9 l=0.5
X229 output.t2 outputibias.t9 gnd.t376 gnd.t375 sky130_fd_pr__nfet_01v8 ad=2.34 pd=12.78 as=2.34 ps=12.78 w=6 l=2
X230 a_n2982_13878.t11 minus.t10 a_n2903_n3924.t32 gnd.t11 sky130_fd_pr__nfet_01v8 ad=1.155 pd=7.33 as=1.155 ps=7.33 w=7 l=0.9
X231 vdd.t208 a_n2982_13878.t83 a_n2804_13878.t4 vdd.t207 sky130_fd_pr__pfet_01v8 ad=1.485 pd=9.33 as=1.485 ps=9.33 w=9 l=0.5
X232 CSoutput.t74 commonsourceibias.t157 gnd.t256 gnd.t210 sky130_fd_pr__nfet_01v8 ad=1.155 pd=7.33 as=1.155 ps=7.33 w=7 l=1
X233 CSoutput.t73 commonsourceibias.t158 gnd.t257 gnd.t164 sky130_fd_pr__nfet_01v8 ad=1.155 pd=7.33 as=1.155 ps=7.33 w=7 l=1
X234 CSoutput.t29 a_n8300_8799.t71 vdd.t134 vdd.t114 sky130_fd_pr__pfet_01v8 ad=1.32 pd=8.33 as=1.32 ps=8.33 w=8 l=0.5
X235 CSoutput.t72 commonsourceibias.t159 gnd.t255 gnd.t186 sky130_fd_pr__nfet_01v8 ad=1.155 pd=7.33 as=1.155 ps=7.33 w=7 l=1
X236 gnd.t254 commonsourceibias.t18 commonsourceibias.t19 gnd.t253 sky130_fd_pr__nfet_01v8 ad=1.155 pd=7.33 as=1.155 ps=7.33 w=7 l=1
X237 a_n2903_n3924.t8 plus.t16 a_n8300_8799.t2 gnd.t21 sky130_fd_pr__nfet_01v8 ad=1.155 pd=7.33 as=1.155 ps=7.33 w=7 l=0.9
X238 vdd.t234 a_n8300_8799.t72 CSoutput.t184 vdd.t136 sky130_fd_pr__pfet_01v8 ad=1.32 pd=8.33 as=1.32 ps=8.33 w=8 l=0.5
X239 outputibias.t5 outputibias.t4 gnd.t364 gnd.t363 sky130_fd_pr__nfet_01v8 ad=2.34 pd=12.78 as=2.34 ps=12.78 w=6 l=2
X240 vdd.t235 a_n8300_8799.t73 CSoutput.t185 vdd.t5 sky130_fd_pr__pfet_01v8 ad=1.32 pd=8.33 as=1.32 ps=8.33 w=8 l=0.5
X241 commonsourceibias.t17 commonsourceibias.t16 gnd.t252 gnd.t251 sky130_fd_pr__nfet_01v8 ad=1.155 pd=7.33 as=1.155 ps=7.33 w=7 l=1
X242 gnd.t246 commonsourceibias.t160 CSoutput.t71 gnd.t182 sky130_fd_pr__nfet_01v8 ad=1.155 pd=7.33 as=1.155 ps=7.33 w=7 l=1
X243 CSoutput.t190 a_n8300_8799.t74 vdd.t240 vdd.t125 sky130_fd_pr__pfet_01v8 ad=1.32 pd=8.33 as=1.32 ps=8.33 w=8 l=0.5
X244 a_n2804_13878.t14 a_n2982_13878.t19 a_n2982_13878.t20 vdd.t206 sky130_fd_pr__pfet_01v8 ad=1.485 pd=9.33 as=1.485 ps=9.33 w=9 l=0.5
X245 gnd.t250 commonsourceibias.t32 commonsourceibias.t33 gnd.t156 sky130_fd_pr__nfet_01v8 ad=1.155 pd=7.33 as=1.155 ps=7.33 w=7 l=1