* NGSPICE file created from opamp110.ext - technology: sky130A

.subckt opamp110 gnd CSoutput output vdd plus minus commonsourceibias outputibias
+ diffpairibias
X0 gnd.t321 commonsourceibias.t2 commonsourceibias.t3 gnd.t259 sky130_fd_pr__nfet_01v8 ad=1.155 pd=7.33 as=1.155 ps=7.33 w=7 l=1
X1 CSoutput.t95 a_n8300_8799.t44 vdd.t261 vdd.t220 sky130_fd_pr__pfet_01v8 ad=1.32 pd=8.33 as=3.12 ps=16.78 w=8 l=0.5
X2 a_n2472_13878.t27 a_n2650_13878.t64 vdd.t18 vdd.t17 sky130_fd_pr__pfet_01v8 ad=1.485 pd=9.33 as=1.485 ps=9.33 w=9 l=0.5
X3 a_n2472_13878.t19 a_n2650_13878.t37 a_n2650_13878.t38 vdd.t103 sky130_fd_pr__pfet_01v8 ad=1.485 pd=9.33 as=1.485 ps=9.33 w=9 l=0.5
X4 vdd.t260 a_n8300_8799.t45 CSoutput.t94 vdd.t218 sky130_fd_pr__pfet_01v8 ad=1.32 pd=8.33 as=1.32 ps=8.33 w=8 l=0.5
X5 commonsourceibias.t19 commonsourceibias.t18 gnd.t320 gnd.t218 sky130_fd_pr__nfet_01v8 ad=1.155 pd=7.33 as=1.155 ps=7.33 w=7 l=1
X6 CSoutput.t93 a_n8300_8799.t46 vdd.t259 vdd.t154 sky130_fd_pr__pfet_01v8 ad=1.32 pd=8.33 as=3.12 ps=16.78 w=8 l=0.5
X7 a_n3827_n3924.t51 diffpairibias.t20 gnd.t60 gnd.t59 sky130_fd_pr__nfet_01v8 ad=2.73 pd=14.78 as=2.73 ps=14.78 w=7 l=1
X8 CSoutput.t92 a_n8300_8799.t47 vdd.t258 vdd.t145 sky130_fd_pr__pfet_01v8 ad=1.32 pd=8.33 as=1.32 ps=8.33 w=8 l=0.5
X9 gnd.t319 commonsourceibias.t16 commonsourceibias.t17 gnd.t202 sky130_fd_pr__nfet_01v8 ad=1.155 pd=7.33 as=1.155 ps=7.33 w=7 l=1
X10 a_n2650_8322.t27 a_n2650_13878.t65 a_n8300_8799.t4 vdd.t19 sky130_fd_pr__pfet_01v8 ad=1.485 pd=9.33 as=1.485 ps=9.33 w=9 l=0.5
X11 commonsourceibias.t15 commonsourceibias.t14 gnd.t318 gnd.t226 sky130_fd_pr__nfet_01v8 ad=1.155 pd=7.33 as=1.155 ps=7.33 w=7 l=1
X12 gnd.t317 commonsourceibias.t48 CSoutput.t167 gnd.t254 sky130_fd_pr__nfet_01v8 ad=1.155 pd=7.33 as=1.155 ps=7.33 w=7 l=1
X13 gnd.t197 gnd.t195 gnd.t196 gnd.t117 sky130_fd_pr__nfet_01v8 ad=2.73 pd=14.78 as=0 ps=0 w=7 l=0.5
X14 CSoutput.t91 a_n8300_8799.t48 vdd.t257 vdd.t180 sky130_fd_pr__pfet_01v8 ad=1.32 pd=8.33 as=1.32 ps=8.33 w=8 l=0.5
X15 gnd.t194 gnd.t192 gnd.t193 gnd.t106 sky130_fd_pr__nfet_01v8 ad=2.73 pd=14.78 as=0 ps=0 w=7 l=0.5
X16 gnd.t191 gnd.t190 plus.t4 gnd.t117 sky130_fd_pr__nfet_01v8 ad=0.165 pd=1.33 as=0.165 ps=1.33 w=1 l=0.5
X17 a_n8300_8799.t5 plus.t5 a_n3827_n3924.t4 gnd.t13 sky130_fd_pr__nfet_01v8 ad=1.155 pd=7.33 as=1.155 ps=7.33 w=7 l=0.5
X18 vdd.t256 a_n8300_8799.t49 CSoutput.t90 vdd.t207 sky130_fd_pr__pfet_01v8 ad=1.32 pd=8.33 as=1.32 ps=8.33 w=8 l=0.5
X19 minus.t4 gnd.t187 gnd.t189 gnd.t188 sky130_fd_pr__nfet_01v8 ad=0.165 pd=1.33 as=0.165 ps=1.33 w=1 l=0.5
X20 gnd.t186 gnd.t184 gnd.t185 gnd.t110 sky130_fd_pr__nfet_01v8 ad=2.73 pd=14.78 as=0 ps=0 w=7 l=1
X21 output.t19 outputibias.t8 gnd.t50 gnd.t49 sky130_fd_pr__nfet_01v8 ad=2.34 pd=12.78 as=2.34 ps=12.78 w=6 l=2
X22 a_n8300_8799.t37 a_n2650_13878.t66 a_n2650_8322.t26 vdd.t123 sky130_fd_pr__pfet_01v8 ad=1.485 pd=9.33 as=1.485 ps=9.33 w=9 l=0.5
X23 vdd.t249 a_n8300_8799.t50 CSoutput.t89 vdd.t142 sky130_fd_pr__pfet_01v8 ad=1.32 pd=8.33 as=1.32 ps=8.33 w=8 l=0.5
X24 vdd.t255 a_n8300_8799.t51 CSoutput.t88 vdd.t229 sky130_fd_pr__pfet_01v8 ad=1.32 pd=8.33 as=1.32 ps=8.33 w=8 l=0.5
X25 commonsourceibias.t13 commonsourceibias.t12 gnd.t316 gnd.t257 sky130_fd_pr__nfet_01v8 ad=1.155 pd=7.33 as=1.155 ps=7.33 w=7 l=1
X26 a_n8300_8799.t38 a_n2650_13878.t67 a_n2650_8322.t25 vdd.t264 sky130_fd_pr__pfet_01v8 ad=1.485 pd=9.33 as=3.51 ps=18.78 w=9 l=0.5
X27 gnd.t183 gnd.t180 gnd.t182 gnd.t181 sky130_fd_pr__nfet_01v8 ad=2.34 pd=12.78 as=0 ps=0 w=6 l=2
X28 gnd.t179 gnd.t176 gnd.t178 gnd.t177 sky130_fd_pr__nfet_01v8 ad=1.95 pd=10.78 as=0 ps=0 w=5 l=1
X29 a_n8300_8799.t39 plus.t6 a_n3827_n3924.t55 gnd.t326 sky130_fd_pr__nfet_01v8 ad=1.155 pd=7.33 as=1.155 ps=7.33 w=7 l=0.5
X30 gnd.t315 commonsourceibias.t49 CSoutput.t166 gnd.t212 sky130_fd_pr__nfet_01v8 ad=1.155 pd=7.33 as=1.155 ps=7.33 w=7 l=1
X31 CSoutput.t165 commonsourceibias.t50 gnd.t314 gnd.t222 sky130_fd_pr__nfet_01v8 ad=1.155 pd=7.33 as=1.155 ps=7.33 w=7 l=1
X32 gnd.t313 commonsourceibias.t10 commonsourceibias.t11 gnd.t254 sky130_fd_pr__nfet_01v8 ad=1.155 pd=7.33 as=1.155 ps=7.33 w=7 l=1
X33 CSoutput.t87 a_n8300_8799.t52 vdd.t254 vdd.t220 sky130_fd_pr__pfet_01v8 ad=1.32 pd=8.33 as=3.12 ps=16.78 w=8 l=0.5
X34 a_n3827_n3924.t50 diffpairibias.t21 gnd.t42 gnd.t41 sky130_fd_pr__nfet_01v8 ad=2.73 pd=14.78 as=2.73 ps=14.78 w=7 l=1
X35 a_n3827_n3924.t10 minus.t5 a_n2650_13878.t43 gnd.t19 sky130_fd_pr__nfet_01v8 ad=1.155 pd=7.33 as=1.155 ps=7.33 w=7 l=0.5
X36 commonsourceibias.t9 commonsourceibias.t8 gnd.t312 gnd.t204 sky130_fd_pr__nfet_01v8 ad=1.155 pd=7.33 as=2.73 ps=14.78 w=7 l=1
X37 CSoutput.t86 a_n8300_8799.t53 vdd.t253 vdd.t192 sky130_fd_pr__pfet_01v8 ad=1.32 pd=8.33 as=1.32 ps=8.33 w=8 l=0.5
X38 a_n3827_n3924.t12 plus.t7 a_n8300_8799.t12 gnd.t25 sky130_fd_pr__nfet_01v8 ad=1.155 pd=7.33 as=1.155 ps=7.33 w=7 l=0.5
X39 vdd.t252 a_n8300_8799.t54 CSoutput.t85 vdd.t142 sky130_fd_pr__pfet_01v8 ad=1.32 pd=8.33 as=1.32 ps=8.33 w=8 l=0.5
X40 a_n2650_13878.t58 minus.t6 a_n3827_n3924.t37 gnd.t44 sky130_fd_pr__nfet_01v8 ad=1.155 pd=7.33 as=1.155 ps=7.33 w=7 l=0.5
X41 a_n3827_n3924.t30 plus.t8 a_n8300_8799.t25 gnd.t46 sky130_fd_pr__nfet_01v8 ad=1.155 pd=7.33 as=1.155 ps=7.33 w=7 l=0.5
X42 a_n3827_n3924.t56 minus.t7 a_n2650_13878.t63 gnd.t33 sky130_fd_pr__nfet_01v8 ad=1.155 pd=7.33 as=1.155 ps=7.33 w=7 l=0.5
X43 CSoutput.t84 a_n8300_8799.t55 vdd.t251 vdd.t145 sky130_fd_pr__pfet_01v8 ad=1.32 pd=8.33 as=1.32 ps=8.33 w=8 l=0.5
X44 gnd.t311 commonsourceibias.t6 commonsourceibias.t7 gnd.t249 sky130_fd_pr__nfet_01v8 ad=1.155 pd=7.33 as=1.155 ps=7.33 w=7 l=1
X45 CSoutput.t164 commonsourceibias.t51 gnd.t310 gnd.t214 sky130_fd_pr__nfet_01v8 ad=1.155 pd=7.33 as=2.73 ps=14.78 w=7 l=1
X46 vdd.t102 vdd.t100 vdd.t101 vdd.t36 sky130_fd_pr__pfet_01v8 ad=3.51 pd=18.78 as=0 ps=0 w=9 l=0.5
X47 a_n2472_13878.t18 a_n2650_13878.t11 a_n2650_13878.t12 vdd.t124 sky130_fd_pr__pfet_01v8 ad=1.485 pd=9.33 as=1.485 ps=9.33 w=9 l=0.5
X48 a_n2650_13878.t22 a_n2650_13878.t21 a_n2472_13878.t17 vdd.t117 sky130_fd_pr__pfet_01v8 ad=1.485 pd=9.33 as=1.485 ps=9.33 w=9 l=0.5
X49 output.t18 outputibias.t9 gnd.t48 gnd.t47 sky130_fd_pr__nfet_01v8 ad=2.34 pd=12.78 as=2.34 ps=12.78 w=6 l=2
X50 CSoutput.t83 a_n8300_8799.t56 vdd.t250 vdd.t180 sky130_fd_pr__pfet_01v8 ad=1.32 pd=8.33 as=1.32 ps=8.33 w=8 l=0.5
X51 a_n3827_n3924.t2 minus.t8 a_n2650_13878.t2 gnd.t6 sky130_fd_pr__nfet_01v8 ad=1.155 pd=7.33 as=1.155 ps=7.33 w=7 l=0.5
X52 vdd.t99 vdd.t97 vdd.t98 vdd.t74 sky130_fd_pr__pfet_01v8 ad=3.51 pd=18.78 as=0 ps=0 w=9 l=0.5
X53 vdd.t248 a_n8300_8799.t57 CSoutput.t82 vdd.t207 sky130_fd_pr__pfet_01v8 ad=1.32 pd=8.33 as=1.32 ps=8.33 w=8 l=0.5
X54 diffpairibias.t19 diffpairibias.t18 gnd.t56 gnd.t55 sky130_fd_pr__nfet_01v8 ad=2.73 pd=14.78 as=2.73 ps=14.78 w=7 l=1
X55 a_n2650_13878.t42 a_n2650_13878.t41 a_n2472_13878.t16 vdd.t109 sky130_fd_pr__pfet_01v8 ad=1.485 pd=9.33 as=1.485 ps=9.33 w=9 l=0.5
X56 CSoutput.t163 commonsourceibias.t52 gnd.t309 gnd.t270 sky130_fd_pr__nfet_01v8 ad=1.155 pd=7.33 as=1.155 ps=7.33 w=7 l=1
X57 CSoutput.t162 commonsourceibias.t53 gnd.t308 gnd.t243 sky130_fd_pr__nfet_01v8 ad=1.155 pd=7.33 as=1.155 ps=7.33 w=7 l=1
X58 a_n8300_8799.t17 a_n2650_13878.t68 a_n2650_8322.t24 vdd.t10 sky130_fd_pr__pfet_01v8 ad=1.485 pd=9.33 as=1.485 ps=9.33 w=9 l=0.5
X59 CSoutput.t81 a_n8300_8799.t58 vdd.t247 vdd.t213 sky130_fd_pr__pfet_01v8 ad=1.32 pd=8.33 as=1.32 ps=8.33 w=8 l=0.5
X60 a_n2650_13878.t1 minus.t9 a_n3827_n3924.t1 gnd.t5 sky130_fd_pr__nfet_01v8 ad=1.155 pd=7.33 as=2.73 ps=14.78 w=7 l=0.5
X61 a_n2650_13878.t20 a_n2650_13878.t19 a_n2472_13878.t15 vdd.t11 sky130_fd_pr__pfet_01v8 ad=3.51 pd=18.78 as=1.485 ps=9.33 w=9 l=0.5
X62 gnd.t175 gnd.t173 gnd.t174 gnd.t94 sky130_fd_pr__nfet_01v8 ad=2.73 pd=14.78 as=0 ps=0 w=7 l=1
X63 gnd.t172 gnd.t170 plus.t3 gnd.t171 sky130_fd_pr__nfet_01v8 ad=0.165 pd=1.33 as=0.39 ps=2.78 w=1 l=0.5
X64 vdd.t246 a_n8300_8799.t59 CSoutput.t80 vdd.t156 sky130_fd_pr__pfet_01v8 ad=1.32 pd=8.33 as=1.32 ps=8.33 w=8 l=0.5
X65 vdd.t245 a_n8300_8799.t60 CSoutput.t79 vdd.t229 sky130_fd_pr__pfet_01v8 ad=1.32 pd=8.33 as=1.32 ps=8.33 w=8 l=0.5
X66 a_n8300_8799.t18 a_n2650_13878.t69 a_n2650_8322.t23 vdd.t114 sky130_fd_pr__pfet_01v8 ad=1.485 pd=9.33 as=3.51 ps=18.78 w=9 l=0.5
X67 diffpairibias.t17 diffpairibias.t16 gnd.t66 gnd.t65 sky130_fd_pr__nfet_01v8 ad=2.73 pd=14.78 as=2.73 ps=14.78 w=7 l=1
X68 CSoutput.t78 a_n8300_8799.t61 vdd.t244 vdd.t163 sky130_fd_pr__pfet_01v8 ad=1.32 pd=8.33 as=1.32 ps=8.33 w=8 l=0.5
X69 gnd.t169 gnd.t167 gnd.t168 gnd.t94 sky130_fd_pr__nfet_01v8 ad=2.73 pd=14.78 as=0 ps=0 w=7 l=1
X70 CSoutput.t168 a_n2650_8322.t33 sky130_fd_pr__cap_mim_m3_1 l=12 w=12
X71 a_n2650_8322.t22 a_n2650_13878.t70 a_n8300_8799.t34 vdd.t11 sky130_fd_pr__pfet_01v8 ad=3.51 pd=18.78 as=1.485 ps=9.33 w=9 l=0.5
X72 CSoutput.t161 commonsourceibias.t54 gnd.t307 gnd.t243 sky130_fd_pr__nfet_01v8 ad=1.155 pd=7.33 as=1.155 ps=7.33 w=7 l=1
X73 vdd.t96 vdd.t94 vdd.t95 vdd.t61 sky130_fd_pr__pfet_01v8 ad=3.12 pd=16.78 as=0 ps=0 w=8 l=0.5
X74 CSoutput.t77 a_n8300_8799.t62 vdd.t243 vdd.t195 sky130_fd_pr__pfet_01v8 ad=1.32 pd=8.33 as=1.32 ps=8.33 w=8 l=0.5
X75 plus.t2 gnd.t164 gnd.t166 gnd.t165 sky130_fd_pr__nfet_01v8 ad=0.165 pd=1.33 as=0.165 ps=1.33 w=1 l=0.5
X76 output.t15 CSoutput.t169 vdd.t118 gnd.t43 sky130_fd_pr__nfet_01v8 ad=0.825 pd=5.33 as=0.825 ps=5.33 w=5 l=1
X77 gnd.t306 commonsourceibias.t55 CSoutput.t160 gnd.t232 sky130_fd_pr__nfet_01v8 ad=2.73 pd=14.78 as=1.155 ps=7.33 w=7 l=1
X78 CSoutput.t170 a_n2650_8322.t32 sky130_fd_pr__cap_mim_m3_1 l=12 w=12
X79 CSoutput.t159 commonsourceibias.t56 gnd.t305 gnd.t245 sky130_fd_pr__nfet_01v8 ad=1.155 pd=7.33 as=1.155 ps=7.33 w=7 l=1
X80 a_n8300_8799.t28 plus.t9 a_n3827_n3924.t31 gnd.t57 sky130_fd_pr__nfet_01v8 ad=1.155 pd=7.33 as=1.155 ps=7.33 w=7 l=0.5
X81 gnd.t304 commonsourceibias.t57 CSoutput.t158 gnd.t220 sky130_fd_pr__nfet_01v8 ad=2.73 pd=14.78 as=1.155 ps=7.33 w=7 l=1
X82 gnd.t163 gnd.t161 gnd.t162 gnd.t110 sky130_fd_pr__nfet_01v8 ad=2.73 pd=14.78 as=0 ps=0 w=7 l=1
X83 a_n3827_n3924.t49 diffpairibias.t22 gnd.t201 gnd.t200 sky130_fd_pr__nfet_01v8 ad=2.73 pd=14.78 as=2.73 ps=14.78 w=7 l=1
X84 vdd.t242 a_n8300_8799.t63 CSoutput.t76 vdd.t205 sky130_fd_pr__pfet_01v8 ad=1.32 pd=8.33 as=1.32 ps=8.33 w=8 l=0.5
X85 a_n3827_n3924.t41 minus.t10 a_n2650_13878.t60 gnd.t18 sky130_fd_pr__nfet_01v8 ad=1.155 pd=7.33 as=1.155 ps=7.33 w=7 l=0.5
X86 vdd.t241 a_n8300_8799.t64 CSoutput.t75 vdd.t211 sky130_fd_pr__pfet_01v8 ad=1.32 pd=8.33 as=1.32 ps=8.33 w=8 l=0.5
X87 CSoutput.t157 commonsourceibias.t58 gnd.t303 gnd.t208 sky130_fd_pr__nfet_01v8 ad=1.155 pd=7.33 as=1.155 ps=7.33 w=7 l=1
X88 a_n2650_13878.t8 a_n2650_13878.t7 a_n2472_13878.t14 vdd.t19 sky130_fd_pr__pfet_01v8 ad=1.485 pd=9.33 as=1.485 ps=9.33 w=9 l=0.5
X89 vdd.t240 a_n8300_8799.t65 CSoutput.t74 vdd.t186 sky130_fd_pr__pfet_01v8 ad=3.12 pd=16.78 as=1.32 ps=8.33 w=8 l=0.5
X90 vdd.t239 a_n8300_8799.t66 CSoutput.t73 vdd.t216 sky130_fd_pr__pfet_01v8 ad=1.32 pd=8.33 as=1.32 ps=8.33 w=8 l=0.5
X91 a_n8300_8799.t35 a_n2650_13878.t71 a_n2650_8322.t21 vdd.t268 sky130_fd_pr__pfet_01v8 ad=1.485 pd=9.33 as=1.485 ps=9.33 w=9 l=0.5
X92 a_n2650_13878.t40 a_n2650_13878.t39 a_n2472_13878.t13 vdd.t14 sky130_fd_pr__pfet_01v8 ad=3.51 pd=18.78 as=1.485 ps=9.33 w=9 l=0.5
X93 a_n2650_13878.t44 minus.t11 a_n3827_n3924.t11 gnd.t24 sky130_fd_pr__nfet_01v8 ad=1.155 pd=7.33 as=1.155 ps=7.33 w=7 l=0.5
X94 a_n3827_n3924.t35 plus.t10 a_n8300_8799.t29 gnd.t35 sky130_fd_pr__nfet_01v8 ad=1.155 pd=7.33 as=1.155 ps=7.33 w=7 l=0.5
X95 outputibias.t7 outputibias.t6 gnd.t332 gnd.t331 sky130_fd_pr__nfet_01v8 ad=2.34 pd=12.78 as=2.34 ps=12.78 w=6 l=2
X96 commonsourceibias.t45 commonsourceibias.t44 gnd.t302 gnd.t222 sky130_fd_pr__nfet_01v8 ad=1.155 pd=7.33 as=1.155 ps=7.33 w=7 l=1
X97 gnd.t301 commonsourceibias.t59 CSoutput.t156 gnd.t230 sky130_fd_pr__nfet_01v8 ad=1.155 pd=7.33 as=1.155 ps=7.33 w=7 l=1
X98 CSoutput.t155 commonsourceibias.t60 gnd.t300 gnd.t218 sky130_fd_pr__nfet_01v8 ad=1.155 pd=7.33 as=1.155 ps=7.33 w=7 l=1
X99 vdd.t238 a_n8300_8799.t67 CSoutput.t72 vdd.t161 sky130_fd_pr__pfet_01v8 ad=1.32 pd=8.33 as=1.32 ps=8.33 w=8 l=0.5
X100 CSoutput.t71 a_n8300_8799.t68 vdd.t237 vdd.t190 sky130_fd_pr__pfet_01v8 ad=1.32 pd=8.33 as=1.32 ps=8.33 w=8 l=0.5
X101 gnd.t160 gnd.t158 gnd.t159 gnd.t102 sky130_fd_pr__nfet_01v8 ad=2.73 pd=14.78 as=0 ps=0 w=7 l=1
X102 outputibias.t5 outputibias.t4 gnd.t4 gnd.t3 sky130_fd_pr__nfet_01v8 ad=2.34 pd=12.78 as=2.34 ps=12.78 w=6 l=2
X103 diffpairibias.t15 diffpairibias.t14 gnd.t334 gnd.t333 sky130_fd_pr__nfet_01v8 ad=2.73 pd=14.78 as=2.73 ps=14.78 w=7 l=1
X104 a_n3827_n3924.t18 minus.t12 a_n2650_13878.t47 gnd.t36 sky130_fd_pr__nfet_01v8 ad=2.73 pd=14.78 as=1.155 ps=7.33 w=7 l=0.5
X105 vdd.t93 vdd.t91 vdd.t92 vdd.t78 sky130_fd_pr__pfet_01v8 ad=3.51 pd=18.78 as=0 ps=0 w=9 l=0.5
X106 CSoutput.t70 a_n8300_8799.t69 vdd.t236 vdd.t163 sky130_fd_pr__pfet_01v8 ad=1.32 pd=8.33 as=1.32 ps=8.33 w=8 l=0.5
X107 vdd.t90 vdd.t87 vdd.t89 vdd.t88 sky130_fd_pr__pfet_01v8 ad=3.51 pd=18.78 as=0 ps=0 w=9 l=0.5
X108 CSoutput.t69 a_n8300_8799.t70 vdd.t235 vdd.t134 sky130_fd_pr__pfet_01v8 ad=1.32 pd=8.33 as=1.32 ps=8.33 w=8 l=0.5
X109 vdd.t212 a_n8300_8799.t71 CSoutput.t68 vdd.t211 sky130_fd_pr__pfet_01v8 ad=1.32 pd=8.33 as=1.32 ps=8.33 w=8 l=0.5
X110 vdd.t126 a_n2650_13878.t72 a_n2650_8322.t7 vdd.t125 sky130_fd_pr__pfet_01v8 ad=1.485 pd=9.33 as=1.485 ps=9.33 w=9 l=0.5
X111 gnd.t299 commonsourceibias.t42 commonsourceibias.t43 gnd.t216 sky130_fd_pr__nfet_01v8 ad=1.155 pd=7.33 as=1.155 ps=7.33 w=7 l=1
X112 a_n2650_13878.t28 a_n2650_13878.t27 a_n2472_13878.t12 vdd.t115 sky130_fd_pr__pfet_01v8 ad=1.485 pd=9.33 as=1.485 ps=9.33 w=9 l=0.5
X113 vdd.t86 vdd.t84 vdd.t85 vdd.t61 sky130_fd_pr__pfet_01v8 ad=3.12 pd=16.78 as=0 ps=0 w=8 l=0.5
X114 vdd.t83 vdd.t81 vdd.t82 vdd.t54 sky130_fd_pr__pfet_01v8 ad=3.12 pd=16.78 as=0 ps=0 w=8 l=0.5
X115 output.t14 CSoutput.t171 vdd.t266 gnd.t322 sky130_fd_pr__nfet_01v8 ad=0.825 pd=5.33 as=0.825 ps=5.33 w=5 l=1
X116 CSoutput.t154 commonsourceibias.t61 gnd.t298 gnd.t257 sky130_fd_pr__nfet_01v8 ad=1.155 pd=7.33 as=1.155 ps=7.33 w=7 l=1
X117 a_n2650_8322.t6 a_n2650_13878.t73 vdd.t128 vdd.t127 sky130_fd_pr__pfet_01v8 ad=1.485 pd=9.33 as=1.485 ps=9.33 w=9 l=0.5
X118 a_n3827_n3924.t48 diffpairibias.t23 gnd.t325 gnd.t324 sky130_fd_pr__nfet_01v8 ad=2.73 pd=14.78 as=2.73 ps=14.78 w=7 l=1
X119 CSoutput.t67 a_n8300_8799.t72 vdd.t234 vdd.t195 sky130_fd_pr__pfet_01v8 ad=1.32 pd=8.33 as=1.32 ps=8.33 w=8 l=0.5
X120 gnd.t297 commonsourceibias.t62 CSoutput.t153 gnd.t259 sky130_fd_pr__nfet_01v8 ad=1.155 pd=7.33 as=1.155 ps=7.33 w=7 l=1
X121 a_n2650_13878.t59 minus.t13 a_n3827_n3924.t39 gnd.t34 sky130_fd_pr__nfet_01v8 ad=1.155 pd=7.33 as=1.155 ps=7.33 w=7 l=0.5
X122 commonsourceibias.t41 commonsourceibias.t40 gnd.t296 gnd.t214 sky130_fd_pr__nfet_01v8 ad=1.155 pd=7.33 as=2.73 ps=14.78 w=7 l=1
X123 a_n3827_n3924.t38 plus.t11 a_n8300_8799.t30 gnd.t40 sky130_fd_pr__nfet_01v8 ad=1.155 pd=7.33 as=1.155 ps=7.33 w=7 l=0.5
X124 vdd.t111 a_n2650_13878.t74 a_n2472_13878.t26 vdd.t110 sky130_fd_pr__pfet_01v8 ad=1.485 pd=9.33 as=1.485 ps=9.33 w=9 l=0.5
X125 gnd.t295 commonsourceibias.t63 CSoutput.t152 gnd.t239 sky130_fd_pr__nfet_01v8 ad=1.155 pd=7.33 as=1.155 ps=7.33 w=7 l=1
X126 gnd.t154 gnd.t152 minus.t3 gnd.t153 sky130_fd_pr__nfet_01v8 ad=0.165 pd=1.33 as=0.39 ps=2.78 w=1 l=0.5
X127 gnd.t157 gnd.t155 gnd.t156 gnd.t102 sky130_fd_pr__nfet_01v8 ad=2.73 pd=14.78 as=0 ps=0 w=7 l=1
X128 gnd.t151 gnd.t149 gnd.t150 gnd.t80 sky130_fd_pr__nfet_01v8 ad=2.73 pd=14.78 as=0 ps=0 w=7 l=1
X129 gnd.t291 commonsourceibias.t28 commonsourceibias.t29 gnd.t212 sky130_fd_pr__nfet_01v8 ad=1.155 pd=7.33 as=1.155 ps=7.33 w=7 l=1
X130 vdd.t80 vdd.t77 vdd.t79 vdd.t78 sky130_fd_pr__pfet_01v8 ad=3.51 pd=18.78 as=0 ps=0 w=9 l=0.5
X131 vdd.t233 a_n8300_8799.t73 CSoutput.t66 vdd.t211 sky130_fd_pr__pfet_01v8 ad=1.32 pd=8.33 as=1.32 ps=8.33 w=8 l=0.5
X132 vdd.t232 a_n8300_8799.t74 CSoutput.t65 vdd.t216 sky130_fd_pr__pfet_01v8 ad=1.32 pd=8.33 as=1.32 ps=8.33 w=8 l=0.5
X133 CSoutput.t151 commonsourceibias.t64 gnd.t294 gnd.t245 sky130_fd_pr__nfet_01v8 ad=1.155 pd=7.33 as=1.155 ps=7.33 w=7 l=1
X134 a_n8300_8799.t24 plus.t12 a_n3827_n3924.t29 gnd.t45 sky130_fd_pr__nfet_01v8 ad=1.155 pd=7.33 as=2.73 ps=14.78 w=7 l=0.5
X135 commonsourceibias.t39 commonsourceibias.t38 gnd.t293 gnd.t206 sky130_fd_pr__nfet_01v8 ad=1.155 pd=7.33 as=1.155 ps=7.33 w=7 l=1
X136 vdd.t76 vdd.t73 vdd.t75 vdd.t74 sky130_fd_pr__pfet_01v8 ad=3.51 pd=18.78 as=0 ps=0 w=9 l=0.5
X137 a_n2650_8322.t5 a_n2650_13878.t75 vdd.t113 vdd.t112 sky130_fd_pr__pfet_01v8 ad=3.51 pd=18.78 as=1.485 ps=9.33 w=9 l=0.5
X138 gnd.t292 commonsourceibias.t65 CSoutput.t150 gnd.t224 sky130_fd_pr__nfet_01v8 ad=1.155 pd=7.33 as=1.155 ps=7.33 w=7 l=1
X139 a_n2650_13878.t56 minus.t14 a_n3827_n3924.t34 gnd.t32 sky130_fd_pr__nfet_01v8 ad=1.155 pd=7.33 as=1.155 ps=7.33 w=7 l=0.5
X140 a_n8300_8799.t42 a_n2650_13878.t76 a_n2650_8322.t20 vdd.t265 sky130_fd_pr__pfet_01v8 ad=1.485 pd=9.33 as=1.485 ps=9.33 w=9 l=0.5
X141 CSoutput.t64 a_n8300_8799.t75 vdd.t231 vdd.t169 sky130_fd_pr__pfet_01v8 ad=1.32 pd=8.33 as=1.32 ps=8.33 w=8 l=0.5
X142 diffpairibias.t13 diffpairibias.t12 gnd.t78 gnd.t77 sky130_fd_pr__nfet_01v8 ad=2.73 pd=14.78 as=2.73 ps=14.78 w=7 l=1
X143 vdd.t230 a_n8300_8799.t76 CSoutput.t63 vdd.t229 sky130_fd_pr__pfet_01v8 ad=1.32 pd=8.33 as=1.32 ps=8.33 w=8 l=0.5
X144 a_n2650_13878.t4 a_n2650_13878.t3 a_n2472_13878.t11 vdd.t116 sky130_fd_pr__pfet_01v8 ad=1.485 pd=9.33 as=1.485 ps=9.33 w=9 l=0.5
X145 vdd.t228 a_n8300_8799.t77 CSoutput.t62 vdd.t161 sky130_fd_pr__pfet_01v8 ad=1.32 pd=8.33 as=1.32 ps=8.33 w=8 l=0.5
X146 a_n8300_8799.t43 a_n2650_13878.t77 a_n2650_8322.t19 vdd.t103 sky130_fd_pr__pfet_01v8 ad=1.485 pd=9.33 as=1.485 ps=9.33 w=9 l=0.5
X147 CSoutput.t61 a_n8300_8799.t78 vdd.t227 vdd.t190 sky130_fd_pr__pfet_01v8 ad=1.32 pd=8.33 as=1.32 ps=8.33 w=8 l=0.5
X148 a_n2472_13878.t10 a_n2650_13878.t25 a_n2650_13878.t26 vdd.t268 sky130_fd_pr__pfet_01v8 ad=1.485 pd=9.33 as=1.485 ps=9.33 w=9 l=0.5
X149 a_n8300_8799.t6 plus.t13 a_n3827_n3924.t5 gnd.t14 sky130_fd_pr__nfet_01v8 ad=1.155 pd=7.33 as=1.155 ps=7.33 w=7 l=0.5
X150 gnd.t290 commonsourceibias.t66 CSoutput.t149 gnd.t228 sky130_fd_pr__nfet_01v8 ad=1.155 pd=7.33 as=1.155 ps=7.33 w=7 l=1
X151 output.t13 CSoutput.t172 vdd.t267 gnd.t323 sky130_fd_pr__nfet_01v8 ad=0.825 pd=5.33 as=0.825 ps=5.33 w=5 l=1
X152 a_n3827_n3924.t21 minus.t15 a_n2650_13878.t49 gnd.t37 sky130_fd_pr__nfet_01v8 ad=1.155 pd=7.33 as=1.155 ps=7.33 w=7 l=0.5
X153 vdd.t24 CSoutput.t173 output.t12 gnd.t10 sky130_fd_pr__nfet_01v8 ad=0.825 pd=5.33 as=0.825 ps=5.33 w=5 l=1
X154 gnd.t289 commonsourceibias.t67 CSoutput.t148 gnd.t216 sky130_fd_pr__nfet_01v8 ad=1.155 pd=7.33 as=1.155 ps=7.33 w=7 l=1
X155 a_n3827_n3924.t0 minus.t16 a_n2650_13878.t0 gnd.t2 sky130_fd_pr__nfet_01v8 ad=2.73 pd=14.78 as=1.155 ps=7.33 w=7 l=0.5
X156 CSoutput.t60 a_n8300_8799.t79 vdd.t226 vdd.t213 sky130_fd_pr__pfet_01v8 ad=1.32 pd=8.33 as=1.32 ps=8.33 w=8 l=0.5
X157 a_n2650_13878.t55 minus.t17 a_n3827_n3924.t33 gnd.t15 sky130_fd_pr__nfet_01v8 ad=1.155 pd=7.33 as=1.155 ps=7.33 w=7 l=0.5
X158 vdd.t108 a_n2650_13878.t78 a_n2650_8322.t4 vdd.t107 sky130_fd_pr__pfet_01v8 ad=1.485 pd=9.33 as=3.51 ps=18.78 w=9 l=0.5
X159 a_n2472_13878.t9 a_n2650_13878.t17 a_n2650_13878.t18 vdd.t123 sky130_fd_pr__pfet_01v8 ad=1.485 pd=9.33 as=1.485 ps=9.33 w=9 l=0.5
X160 vdd.t225 a_n8300_8799.t80 CSoutput.t59 vdd.t218 sky130_fd_pr__pfet_01v8 ad=1.32 pd=8.33 as=1.32 ps=8.33 w=8 l=0.5
X161 vdd.t72 vdd.t70 vdd.t71 vdd.t54 sky130_fd_pr__pfet_01v8 ad=3.12 pd=16.78 as=0 ps=0 w=8 l=0.5
X162 a_n2650_13878.t14 a_n2650_13878.t13 a_n2472_13878.t8 vdd.t269 sky130_fd_pr__pfet_01v8 ad=1.485 pd=9.33 as=1.485 ps=9.33 w=9 l=0.5
X163 gnd.t148 gnd.t146 gnd.t147 gnd.t110 sky130_fd_pr__nfet_01v8 ad=2.73 pd=14.78 as=0 ps=0 w=7 l=1
X164 vdd.t25 CSoutput.t174 output.t11 gnd.t11 sky130_fd_pr__nfet_01v8 ad=0.825 pd=5.33 as=0.825 ps=5.33 w=5 l=1
X165 CSoutput.t147 commonsourceibias.t68 gnd.t288 gnd.t208 sky130_fd_pr__nfet_01v8 ad=1.155 pd=7.33 as=1.155 ps=7.33 w=7 l=1
X166 gnd.t287 commonsourceibias.t69 CSoutput.t146 gnd.t232 sky130_fd_pr__nfet_01v8 ad=2.73 pd=14.78 as=1.155 ps=7.33 w=7 l=1
X167 gnd.t286 commonsourceibias.t70 CSoutput.t145 gnd.t230 sky130_fd_pr__nfet_01v8 ad=1.155 pd=7.33 as=1.155 ps=7.33 w=7 l=1
X168 vdd.t224 a_n8300_8799.t81 CSoutput.t58 vdd.t171 sky130_fd_pr__pfet_01v8 ad=1.32 pd=8.33 as=1.32 ps=8.33 w=8 l=0.5
X169 a_n3827_n3924.t47 diffpairibias.t24 gnd.t27 gnd.t26 sky130_fd_pr__nfet_01v8 ad=2.73 pd=14.78 as=2.73 ps=14.78 w=7 l=1
X170 a_n3827_n3924.t46 diffpairibias.t25 gnd.t52 gnd.t51 sky130_fd_pr__nfet_01v8 ad=2.73 pd=14.78 as=2.73 ps=14.78 w=7 l=1
X171 a_n2650_13878.t50 minus.t18 a_n3827_n3924.t22 gnd.t13 sky130_fd_pr__nfet_01v8 ad=1.155 pd=7.33 as=1.155 ps=7.33 w=7 l=0.5
X172 vdd.t223 a_n8300_8799.t82 CSoutput.t57 vdd.t205 sky130_fd_pr__pfet_01v8 ad=1.32 pd=8.33 as=1.32 ps=8.33 w=8 l=0.5
X173 gnd.t145 gnd.t143 gnd.t144 gnd.t80 sky130_fd_pr__nfet_01v8 ad=2.73 pd=14.78 as=0 ps=0 w=7 l=1
X174 gnd.t142 gnd.t140 minus.t2 gnd.t141 sky130_fd_pr__nfet_01v8 ad=0.165 pd=1.33 as=0.165 ps=1.33 w=1 l=0.5
X175 a_n2472_13878.t7 a_n2650_13878.t15 a_n2650_13878.t16 vdd.t2 sky130_fd_pr__pfet_01v8 ad=1.485 pd=9.33 as=1.485 ps=9.33 w=9 l=0.5
X176 vdd.t69 vdd.t67 vdd.t68 vdd.t32 sky130_fd_pr__pfet_01v8 ad=3.51 pd=18.78 as=0 ps=0 w=9 l=0.5
X177 a_n2650_8322.t18 a_n2650_13878.t79 a_n8300_8799.t11 vdd.t109 sky130_fd_pr__pfet_01v8 ad=1.485 pd=9.33 as=1.485 ps=9.33 w=9 l=0.5
X178 CSoutput.t56 a_n8300_8799.t83 vdd.t222 vdd.t140 sky130_fd_pr__pfet_01v8 ad=1.32 pd=8.33 as=1.32 ps=8.33 w=8 l=0.5
X179 CSoutput.t55 a_n8300_8799.t84 vdd.t221 vdd.t220 sky130_fd_pr__pfet_01v8 ad=1.32 pd=8.33 as=3.12 ps=16.78 w=8 l=0.5
X180 vdd.t26 CSoutput.t175 output.t10 gnd.t12 sky130_fd_pr__nfet_01v8 ad=0.825 pd=5.33 as=0.825 ps=5.33 w=5 l=1
X181 a_n2650_13878.t61 minus.t19 a_n3827_n3924.t52 gnd.t326 sky130_fd_pr__nfet_01v8 ad=1.155 pd=7.33 as=1.155 ps=7.33 w=7 l=0.5
X182 CSoutput.t144 commonsourceibias.t71 gnd.t285 gnd.t270 sky130_fd_pr__nfet_01v8 ad=1.155 pd=7.33 as=1.155 ps=7.33 w=7 l=1
X183 output.t9 CSoutput.t176 vdd.t12 gnd.t8 sky130_fd_pr__nfet_01v8 ad=0.825 pd=5.33 as=0.825 ps=5.33 w=5 l=1
X184 gnd.t139 gnd.t137 gnd.t138 gnd.t94 sky130_fd_pr__nfet_01v8 ad=2.73 pd=14.78 as=0 ps=0 w=7 l=1
X185 gnd.t284 commonsourceibias.t72 CSoutput.t143 gnd.t239 sky130_fd_pr__nfet_01v8 ad=1.155 pd=7.33 as=1.155 ps=7.33 w=7 l=1
X186 diffpairibias.t11 diffpairibias.t10 gnd.t29 gnd.t28 sky130_fd_pr__nfet_01v8 ad=2.73 pd=14.78 as=2.73 ps=14.78 w=7 l=1
X187 a_n2472_13878.t25 a_n2650_13878.t80 vdd.t7 vdd.t6 sky130_fd_pr__pfet_01v8 ad=1.485 pd=9.33 as=1.485 ps=9.33 w=9 l=0.5
X188 vdd.t9 a_n2650_13878.t81 a_n2472_13878.t24 vdd.t8 sky130_fd_pr__pfet_01v8 ad=1.485 pd=9.33 as=1.485 ps=9.33 w=9 l=0.5
X189 CSoutput.t54 a_n8300_8799.t85 vdd.t214 vdd.t213 sky130_fd_pr__pfet_01v8 ad=1.32 pd=8.33 as=1.32 ps=8.33 w=8 l=0.5
X190 gnd.t283 commonsourceibias.t73 CSoutput.t142 gnd.t254 sky130_fd_pr__nfet_01v8 ad=1.155 pd=7.33 as=1.155 ps=7.33 w=7 l=1
X191 a_n3827_n3924.t9 plus.t14 a_n8300_8799.t10 gnd.t19 sky130_fd_pr__nfet_01v8 ad=1.155 pd=7.33 as=1.155 ps=7.33 w=7 l=0.5
X192 CSoutput.t141 commonsourceibias.t74 gnd.t282 gnd.t214 sky130_fd_pr__nfet_01v8 ad=1.155 pd=7.33 as=2.73 ps=14.78 w=7 l=1
X193 vdd.t219 a_n8300_8799.t86 CSoutput.t53 vdd.t218 sky130_fd_pr__pfet_01v8 ad=1.32 pd=8.33 as=1.32 ps=8.33 w=8 l=0.5
X194 output.t8 CSoutput.t177 vdd.t13 gnd.t9 sky130_fd_pr__nfet_01v8 ad=0.825 pd=5.33 as=0.825 ps=5.33 w=5 l=1
X195 vdd.t217 a_n8300_8799.t87 CSoutput.t52 vdd.t216 sky130_fd_pr__pfet_01v8 ad=1.32 pd=8.33 as=1.32 ps=8.33 w=8 l=0.5
X196 CSoutput.t51 a_n8300_8799.t88 vdd.t215 vdd.t184 sky130_fd_pr__pfet_01v8 ad=1.32 pd=8.33 as=1.32 ps=8.33 w=8 l=0.5
X197 a_n3827_n3924.t28 minus.t20 a_n2650_13878.t53 gnd.t46 sky130_fd_pr__nfet_01v8 ad=1.155 pd=7.33 as=1.155 ps=7.33 w=7 l=0.5
X198 a_n2472_13878.t6 a_n2650_13878.t35 a_n2650_13878.t36 vdd.t10 sky130_fd_pr__pfet_01v8 ad=1.485 pd=9.33 as=1.485 ps=9.33 w=9 l=0.5
X199 diffpairibias.t9 diffpairibias.t8 gnd.t72 gnd.t71 sky130_fd_pr__nfet_01v8 ad=2.73 pd=14.78 as=2.73 ps=14.78 w=7 l=1
X200 a_n3827_n3924.t14 plus.t15 a_n8300_8799.t14 gnd.t33 sky130_fd_pr__nfet_01v8 ad=1.155 pd=7.33 as=1.155 ps=7.33 w=7 l=0.5
X201 gnd.t281 commonsourceibias.t75 CSoutput.t140 gnd.t228 sky130_fd_pr__nfet_01v8 ad=1.155 pd=7.33 as=1.155 ps=7.33 w=7 l=1
X202 CSoutput.t178 a_n2650_8322.t31 sky130_fd_pr__cap_mim_m3_1 l=12 w=12
X203 a_n3827_n3924.t36 minus.t21 a_n2650_13878.t57 gnd.t58 sky130_fd_pr__nfet_01v8 ad=1.155 pd=7.33 as=1.155 ps=7.33 w=7 l=0.5
X204 a_n8300_8799.t0 plus.t16 a_n3827_n3924.t3 gnd.t7 sky130_fd_pr__nfet_01v8 ad=1.155 pd=7.33 as=1.155 ps=7.33 w=7 l=0.5
X205 gnd.t136 gnd.t134 gnd.t135 gnd.t80 sky130_fd_pr__nfet_01v8 ad=2.73 pd=14.78 as=0 ps=0 w=7 l=1
X206 vdd.t210 a_n8300_8799.t89 CSoutput.t50 vdd.t171 sky130_fd_pr__pfet_01v8 ad=1.32 pd=8.33 as=1.32 ps=8.33 w=8 l=0.5
X207 commonsourceibias.t27 commonsourceibias.t26 gnd.t280 gnd.t270 sky130_fd_pr__nfet_01v8 ad=1.155 pd=7.33 as=1.155 ps=7.33 w=7 l=1
X208 a_n2650_8322.t17 a_n2650_13878.t82 a_n8300_8799.t2 vdd.t3 sky130_fd_pr__pfet_01v8 ad=1.485 pd=9.33 as=1.485 ps=9.33 w=9 l=0.5
X209 CSoutput.t49 a_n8300_8799.t90 vdd.t209 vdd.t173 sky130_fd_pr__pfet_01v8 ad=1.32 pd=8.33 as=1.32 ps=8.33 w=8 l=0.5
X210 diffpairibias.t7 diffpairibias.t6 gnd.t330 gnd.t329 sky130_fd_pr__nfet_01v8 ad=2.73 pd=14.78 as=2.73 ps=14.78 w=7 l=1
X211 vdd.t208 a_n8300_8799.t91 CSoutput.t48 vdd.t207 sky130_fd_pr__pfet_01v8 ad=1.32 pd=8.33 as=1.32 ps=8.33 w=8 l=0.5
X212 a_n2472_13878.t5 a_n2650_13878.t29 a_n2650_13878.t30 vdd.t114 sky130_fd_pr__pfet_01v8 ad=1.485 pd=9.33 as=3.51 ps=18.78 w=9 l=0.5
X213 vdd.t66 vdd.t64 vdd.t65 vdd.t43 sky130_fd_pr__pfet_01v8 ad=3.12 pd=16.78 as=0 ps=0 w=8 l=0.5
X214 vdd.t5 a_n2650_13878.t83 a_n2650_8322.t3 vdd.t4 sky130_fd_pr__pfet_01v8 ad=1.485 pd=9.33 as=3.51 ps=18.78 w=9 l=0.5
X215 vdd.t206 a_n8300_8799.t92 CSoutput.t47 vdd.t205 sky130_fd_pr__pfet_01v8 ad=1.32 pd=8.33 as=1.32 ps=8.33 w=8 l=0.5
X216 gnd.t133 gnd.t130 gnd.t132 gnd.t131 sky130_fd_pr__nfet_01v8 ad=1.95 pd=10.78 as=0 ps=0 w=5 l=1
X217 CSoutput.t139 commonsourceibias.t76 gnd.t279 gnd.t210 sky130_fd_pr__nfet_01v8 ad=1.155 pd=7.33 as=1.155 ps=7.33 w=7 l=1
X218 CSoutput.t179 a_n2650_8322.t30 sky130_fd_pr__cap_mim_m3_1 l=12 w=12
X219 output.t17 outputibias.t10 gnd.t68 gnd.t67 sky130_fd_pr__nfet_01v8 ad=2.34 pd=12.78 as=2.34 ps=12.78 w=6 l=2
X220 gnd.t129 gnd.t127 gnd.t128 gnd.t102 sky130_fd_pr__nfet_01v8 ad=2.73 pd=14.78 as=0 ps=0 w=7 l=1
X221 commonsourceibias.t25 commonsourceibias.t24 gnd.t278 gnd.t243 sky130_fd_pr__nfet_01v8 ad=1.155 pd=7.33 as=1.155 ps=7.33 w=7 l=1
X222 CSoutput.t46 a_n8300_8799.t93 vdd.t204 vdd.t192 sky130_fd_pr__pfet_01v8 ad=1.32 pd=8.33 as=1.32 ps=8.33 w=8 l=0.5
X223 gnd.t126 gnd.t123 gnd.t125 gnd.t124 sky130_fd_pr__nfet_01v8 ad=2.73 pd=14.78 as=0 ps=0 w=7 l=1
X224 a_n2472_13878.t23 a_n2650_13878.t84 vdd.t21 vdd.t20 sky130_fd_pr__pfet_01v8 ad=3.51 pd=18.78 as=1.485 ps=9.33 w=9 l=0.5
X225 vdd.t63 vdd.t60 vdd.t62 vdd.t61 sky130_fd_pr__pfet_01v8 ad=3.12 pd=16.78 as=0 ps=0 w=8 l=0.5
X226 vdd.t59 vdd.t57 vdd.t58 vdd.t43 sky130_fd_pr__pfet_01v8 ad=3.12 pd=16.78 as=0 ps=0 w=8 l=0.5
X227 vdd.t262 CSoutput.t180 output.t7 gnd.t75 sky130_fd_pr__nfet_01v8 ad=0.825 pd=5.33 as=0.825 ps=5.33 w=5 l=1
X228 CSoutput.t138 commonsourceibias.t77 gnd.t277 gnd.t210 sky130_fd_pr__nfet_01v8 ad=1.155 pd=7.33 as=1.155 ps=7.33 w=7 l=1
X229 plus.t1 gnd.t120 gnd.t122 gnd.t121 sky130_fd_pr__nfet_01v8 ad=0.165 pd=1.33 as=0.165 ps=1.33 w=1 l=0.5
X230 vdd.t203 a_n8300_8799.t94 CSoutput.t45 vdd.t186 sky130_fd_pr__pfet_01v8 ad=3.12 pd=16.78 as=1.32 ps=8.33 w=8 l=0.5
X231 gnd.t276 commonsourceibias.t78 CSoutput.t137 gnd.t259 sky130_fd_pr__nfet_01v8 ad=1.155 pd=7.33 as=1.155 ps=7.33 w=7 l=1
X232 output.t16 outputibias.t11 gnd.t74 gnd.t73 sky130_fd_pr__nfet_01v8 ad=2.34 pd=12.78 as=2.34 ps=12.78 w=6 l=2
X233 CSoutput.t44 a_n8300_8799.t95 vdd.t202 vdd.t184 sky130_fd_pr__pfet_01v8 ad=1.32 pd=8.33 as=1.32 ps=8.33 w=8 l=0.5
X234 gnd.t275 commonsourceibias.t22 commonsourceibias.t23 gnd.t220 sky130_fd_pr__nfet_01v8 ad=2.73 pd=14.78 as=1.155 ps=7.33 w=7 l=1
X235 gnd.t119 gnd.t116 gnd.t118 gnd.t117 sky130_fd_pr__nfet_01v8 ad=2.73 pd=14.78 as=0 ps=0 w=7 l=0.5
X236 gnd.t274 commonsourceibias.t79 CSoutput.t136 gnd.t232 sky130_fd_pr__nfet_01v8 ad=2.73 pd=14.78 as=1.155 ps=7.33 w=7 l=1
X237 CSoutput.t135 commonsourceibias.t80 gnd.t273 gnd.t218 sky130_fd_pr__nfet_01v8 ad=1.155 pd=7.33 as=1.155 ps=7.33 w=7 l=1
X238 gnd.t115 gnd.t113 minus.t1 gnd.t114 sky130_fd_pr__nfet_01v8 ad=0.39 pd=2.78 as=0.165 ps=1.33 w=1 l=0.5
X239 CSoutput.t134 commonsourceibias.t81 gnd.t272 gnd.t257 sky130_fd_pr__nfet_01v8 ad=1.155 pd=7.33 as=1.155 ps=7.33 w=7 l=1
X240 gnd.t112 gnd.t109 gnd.t111 gnd.t110 sky130_fd_pr__nfet_01v8 ad=2.73 pd=14.78 as=0 ps=0 w=7 l=1
X241 gnd.t108 gnd.t105 gnd.t107 gnd.t106 sky130_fd_pr__nfet_01v8 ad=2.73 pd=14.78 as=0 ps=0 w=7 l=0.5
X242 CSoutput.t133 commonsourceibias.t82 gnd.t271 gnd.t270 sky130_fd_pr__nfet_01v8 ad=1.155 pd=7.33 as=1.155 ps=7.33 w=7 l=1
X243 gnd.t269 commonsourceibias.t83 CSoutput.t132 gnd.t216 sky130_fd_pr__nfet_01v8 ad=1.155 pd=7.33 as=1.155 ps=7.33 w=7 l=1
X244 vdd.t201 a_n8300_8799.t96 CSoutput.t43 vdd.t136 sky130_fd_pr__pfet_01v8 ad=3.12 pd=16.78 as=1.32 ps=8.33 w=8 l=0.5
X245 a_n3827_n3924.t45 diffpairibias.t26 gnd.t1 gnd.t0 sky130_fd_pr__nfet_01v8 ad=2.73 pd=14.78 as=2.73 ps=14.78 w=7 l=1
X246 commonsourceibias.t21 commonsourceibias.t20 gnd.t268 gnd.t208 sky130_fd_pr__nfet_01v8 ad=1.155 pd=7.33 as=1.155 ps=7.33 w=7 l=1
X247 vdd.t23 a_n2650_13878.t85 a_n2650_8322.t2 vdd.t22 sky130_fd_pr__pfet_01v8 ad=1.485 pd=9.33 as=1.485 ps=9.33 w=9 l=0.5
X248 a_n2650_8322.t16 a_n2650_13878.t86 a_n8300_8799.t19 vdd.t116 sky130_fd_pr__pfet_01v8 ad=1.485 pd=9.33 as=1.485 ps=9.33 w=9 l=0.5
X249 CSoutput.t131 commonsourceibias.t84 gnd.t267 gnd.t226 sky130_fd_pr__nfet_01v8 ad=1.155 pd=7.33 as=1.155 ps=7.33 w=7 l=1