* NGSPICE file created from opamp428.ext - technology: sky130A

.subckt opamp428 gnd CSoutput output vdd plus minus commonsourceibias outputibias
+ diffpairibias
X0 CSoutput.t141 a_n6972_8799.t40 vdd.t229 vdd.t195 sky130_fd_pr__pfet_01v8 ad=1.32 pd=8.33 as=1.32 ps=8.33 w=8 l=0.5
X1 CSoutput.t16 commonsourceibias.t64 gnd.t338 gnd.t269 sky130_fd_pr__nfet_01v8 ad=1.155 pd=7.33 as=1.155 ps=7.33 w=7 l=1
X2 a_n2140_13878.t23 a_n2318_13878.t56 vdd.t231 vdd.t230 sky130_fd_pr__pfet_01v8 ad=1.485 pd=9.33 as=1.485 ps=9.33 w=9 l=0.5
X3 a_n2140_13878.t15 a_n2318_13878.t33 a_n2318_13878.t34 vdd.t114 sky130_fd_pr__pfet_01v8 ad=1.485 pd=9.33 as=1.485 ps=9.33 w=9 l=0.5
X4 CSoutput.t168 a_n2318_8322.t26 sky130_fd_pr__cap_mim_m3_1 l=12 w=12
X5 vdd.t228 a_n6972_8799.t41 CSoutput.t140 vdd.t190 sky130_fd_pr__pfet_01v8 ad=1.32 pd=8.33 as=1.32 ps=8.33 w=8 l=0.5
X6 vdd.t96 vdd.t94 vdd.t95 vdd.t38 sky130_fd_pr__pfet_01v8 ad=3.12 pd=16.78 as=0 ps=0 w=8 l=0.5
X7 gnd.t337 commonsourceibias.t65 CSoutput.t147 gnd.t261 sky130_fd_pr__nfet_01v8 ad=1.155 pd=7.33 as=1.155 ps=7.33 w=7 l=1
X8 CSoutput.t150 commonsourceibias.t66 gnd.t336 gnd.t237 sky130_fd_pr__nfet_01v8 ad=1.155 pd=7.33 as=1.155 ps=7.33 w=7 l=1
X9 CSoutput.t29 commonsourceibias.t67 gnd.t335 gnd.t179 sky130_fd_pr__nfet_01v8 ad=1.155 pd=7.33 as=1.155 ps=7.33 w=7 l=1
X10 CSoutput.t139 a_n6972_8799.t42 vdd.t227 vdd.t138 sky130_fd_pr__pfet_01v8 ad=1.32 pd=8.33 as=1.32 ps=8.33 w=8 l=0.5
X11 a_n2318_8322.t23 a_n2318_13878.t57 a_n6972_8799.t33 vdd.t133 sky130_fd_pr__pfet_01v8 ad=1.485 pd=9.33 as=1.485 ps=9.33 w=9 l=0.5
X12 gnd.t138 gnd.t136 gnd.t137 gnd.t72 sky130_fd_pr__nfet_01v8 ad=2.73 pd=14.78 as=0 ps=0 w=7 l=0.5
X13 vdd.t106 CSoutput.t169 output.t17 gnd.t354 sky130_fd_pr__nfet_01v8 ad=0.825 pd=5.33 as=0.825 ps=5.33 w=5 l=1
X14 CSoutput.t138 a_n6972_8799.t43 vdd.t226 vdd.t167 sky130_fd_pr__pfet_01v8 ad=1.32 pd=8.33 as=1.32 ps=8.33 w=8 l=0.5
X15 CSoutput.t7 commonsourceibias.t68 gnd.t334 gnd.t215 sky130_fd_pr__nfet_01v8 ad=1.155 pd=7.33 as=1.155 ps=7.33 w=7 l=1
X16 gnd.t135 gnd.t133 gnd.t134 gnd.t65 sky130_fd_pr__nfet_01v8 ad=2.73 pd=14.78 as=0 ps=0 w=7 l=0.5
X17 gnd.t132 gnd.t131 plus.t4 gnd.t72 sky130_fd_pr__nfet_01v8 ad=0.165 pd=1.33 as=0.165 ps=1.33 w=1 l=0.5
X18 gnd.t333 commonsourceibias.t69 CSoutput.t10 gnd.t196 sky130_fd_pr__nfet_01v8 ad=1.155 pd=7.33 as=1.155 ps=7.33 w=7 l=1
X19 CSoutput.t151 commonsourceibias.t70 gnd.t332 gnd.t259 sky130_fd_pr__nfet_01v8 ad=1.155 pd=7.33 as=1.155 ps=7.33 w=7 l=1
X20 a_n6972_8799.t11 plus.t5 a_n2903_n3924.t46 gnd.t3 sky130_fd_pr__nfet_01v8 ad=1.155 pd=7.33 as=1.155 ps=7.33 w=7 l=0.5
X21 gnd.t331 commonsourceibias.t71 CSoutput.t50 gnd.t212 sky130_fd_pr__nfet_01v8 ad=2.73 pd=14.78 as=1.155 ps=7.33 w=7 l=1
X22 vdd.t225 a_n6972_8799.t44 CSoutput.t137 vdd.t188 sky130_fd_pr__pfet_01v8 ad=1.32 pd=8.33 as=1.32 ps=8.33 w=8 l=0.5
X23 CSoutput.t13 commonsourceibias.t72 gnd.t330 gnd.t259 sky130_fd_pr__nfet_01v8 ad=1.155 pd=7.33 as=1.155 ps=7.33 w=7 l=1
X24 minus.t4 gnd.t128 gnd.t130 gnd.t129 sky130_fd_pr__nfet_01v8 ad=0.165 pd=1.33 as=0.165 ps=1.33 w=1 l=0.5
X25 CSoutput.t59 commonsourceibias.t73 gnd.t329 gnd.t273 sky130_fd_pr__nfet_01v8 ad=1.155 pd=7.33 as=1.155 ps=7.33 w=7 l=1
X26 gnd.t328 commonsourceibias.t74 CSoutput.t64 gnd.t244 sky130_fd_pr__nfet_01v8 ad=2.73 pd=14.78 as=1.155 ps=7.33 w=7 l=1
X27 commonsourceibias.t17 commonsourceibias.t16 gnd.t327 gnd.t215 sky130_fd_pr__nfet_01v8 ad=1.155 pd=7.33 as=1.155 ps=7.33 w=7 l=1
X28 CSoutput.t12 commonsourceibias.t75 gnd.t326 gnd.t179 sky130_fd_pr__nfet_01v8 ad=1.155 pd=7.33 as=1.155 ps=7.33 w=7 l=1
X29 a_n6972_8799.t35 a_n2318_13878.t58 a_n2318_8322.t22 vdd.t105 sky130_fd_pr__pfet_01v8 ad=1.485 pd=9.33 as=3.51 ps=18.78 w=9 l=0.5
X30 vdd.t224 a_n6972_8799.t45 CSoutput.t136 vdd.t202 sky130_fd_pr__pfet_01v8 ad=1.32 pd=8.33 as=1.32 ps=8.33 w=8 l=0.5
X31 CSoutput.t135 a_n6972_8799.t46 vdd.t223 vdd.t169 sky130_fd_pr__pfet_01v8 ad=1.32 pd=8.33 as=1.32 ps=8.33 w=8 l=0.5
X32 CSoutput.t170 a_n2318_8322.t27 sky130_fd_pr__cap_mim_m3_1 l=12 w=12
X33 a_n6972_8799.t36 a_n2318_13878.t59 a_n2318_8322.t21 vdd.t17 sky130_fd_pr__pfet_01v8 ad=1.485 pd=9.33 as=3.51 ps=18.78 w=9 l=0.5
X34 CSoutput.t0 commonsourceibias.t76 gnd.t325 gnd.t269 sky130_fd_pr__nfet_01v8 ad=1.155 pd=7.33 as=1.155 ps=7.33 w=7 l=1
X35 gnd.t324 commonsourceibias.t77 CSoutput.t63 gnd.t252 sky130_fd_pr__nfet_01v8 ad=1.155 pd=7.33 as=1.155 ps=7.33 w=7 l=1
X36 gnd.t127 gnd.t125 gnd.t126 gnd.t51 sky130_fd_pr__nfet_01v8 ad=2.73 pd=14.78 as=0 ps=0 w=7 l=1
X37 a_n6972_8799.t31 plus.t6 a_n2903_n3924.t45 gnd.t153 sky130_fd_pr__nfet_01v8 ad=1.155 pd=7.33 as=1.155 ps=7.33 w=7 l=0.5
X38 CSoutput.t62 commonsourceibias.t78 gnd.t323 gnd.t223 sky130_fd_pr__nfet_01v8 ad=1.155 pd=7.33 as=1.155 ps=7.33 w=7 l=1
X39 CSoutput.t165 commonsourceibias.t79 gnd.t322 gnd.t234 sky130_fd_pr__nfet_01v8 ad=1.155 pd=7.33 as=1.155 ps=7.33 w=7 l=1
X40 gnd.t124 gnd.t122 gnd.t123 gnd.t47 sky130_fd_pr__nfet_01v8 ad=2.73 pd=14.78 as=0 ps=0 w=7 l=1
X41 vdd.t93 vdd.t91 vdd.t92 vdd.t22 sky130_fd_pr__pfet_01v8 ad=3.51 pd=18.78 as=0 ps=0 w=9 l=0.5
X42 CSoutput.t164 commonsourceibias.t80 gnd.t321 gnd.t185 sky130_fd_pr__nfet_01v8 ad=1.155 pd=7.33 as=1.155 ps=7.33 w=7 l=1
X43 CSoutput.t134 a_n6972_8799.t47 vdd.t222 vdd.t195 sky130_fd_pr__pfet_01v8 ad=1.32 pd=8.33 as=1.32 ps=8.33 w=8 l=0.5
X44 a_n2903_n3924.t15 diffpairibias.t16 gnd.t150 gnd.t149 sky130_fd_pr__nfet_01v8 ad=2.73 pd=14.78 as=2.73 ps=14.78 w=7 l=1
X45 a_n2903_n3924.t8 minus.t5 a_n2318_13878.t8 gnd.t6 sky130_fd_pr__nfet_01v8 ad=1.155 pd=7.33 as=1.155 ps=7.33 w=7 l=0.5
X46 CSoutput.t133 a_n6972_8799.t48 vdd.t221 vdd.t161 sky130_fd_pr__pfet_01v8 ad=1.32 pd=8.33 as=3.12 ps=16.78 w=8 l=0.5
X47 gnd.t320 commonsourceibias.t81 CSoutput.t163 gnd.t220 sky130_fd_pr__nfet_01v8 ad=1.155 pd=7.33 as=1.155 ps=7.33 w=7 l=1
X48 vdd.t90 vdd.t88 vdd.t89 vdd.t38 sky130_fd_pr__pfet_01v8 ad=3.12 pd=16.78 as=0 ps=0 w=8 l=0.5
X49 a_n2903_n3924.t44 plus.t7 a_n6972_8799.t2 gnd.t2 sky130_fd_pr__nfet_01v8 ad=1.155 pd=7.33 as=1.155 ps=7.33 w=7 l=0.5
X50 CSoutput.t25 commonsourceibias.t82 gnd.t319 gnd.t183 sky130_fd_pr__nfet_01v8 ad=1.155 pd=7.33 as=2.73 ps=14.78 w=7 l=1
X51 a_n2318_13878.t53 minus.t6 a_n2903_n3924.t49 gnd.t162 sky130_fd_pr__nfet_01v8 ad=1.155 pd=7.33 as=1.155 ps=7.33 w=7 l=0.5
X52 gnd.t311 commonsourceibias.t26 commonsourceibias.t27 gnd.t217 sky130_fd_pr__nfet_01v8 ad=1.155 pd=7.33 as=1.155 ps=7.33 w=7 l=1
X53 CSoutput.t20 commonsourceibias.t83 gnd.t318 gnd.t185 sky130_fd_pr__nfet_01v8 ad=1.155 pd=7.33 as=1.155 ps=7.33 w=7 l=1
X54 a_n2903_n3924.t43 plus.t8 a_n6972_8799.t5 gnd.t139 sky130_fd_pr__nfet_01v8 ad=1.155 pd=7.33 as=1.155 ps=7.33 w=7 l=0.5
X55 output.t18 outputibias.t8 gnd.t356 gnd.t355 sky130_fd_pr__nfet_01v8 ad=2.34 pd=12.78 as=2.34 ps=12.78 w=6 l=2
X56 a_n2903_n3924.t3 minus.t7 a_n2318_13878.t3 gnd.t5 sky130_fd_pr__nfet_01v8 ad=1.155 pd=7.33 as=1.155 ps=7.33 w=7 l=0.5
X57 CSoutput.t132 a_n6972_8799.t49 vdd.t220 vdd.t138 sky130_fd_pr__pfet_01v8 ad=1.32 pd=8.33 as=1.32 ps=8.33 w=8 l=0.5
X58 gnd.t317 commonsourceibias.t84 CSoutput.t24 gnd.t265 sky130_fd_pr__nfet_01v8 ad=1.155 pd=7.33 as=1.155 ps=7.33 w=7 l=1
X59 CSoutput.t142 commonsourceibias.t85 gnd.t316 gnd.t231 sky130_fd_pr__nfet_01v8 ad=1.155 pd=7.33 as=1.155 ps=7.33 w=7 l=1
X60 a_n2140_13878.t14 a_n2318_13878.t39 a_n2318_13878.t40 vdd.t20 sky130_fd_pr__pfet_01v8 ad=1.485 pd=9.33 as=1.485 ps=9.33 w=9 l=0.5
X61 gnd.t315 commonsourceibias.t86 CSoutput.t2 gnd.t265 sky130_fd_pr__nfet_01v8 ad=1.155 pd=7.33 as=1.155 ps=7.33 w=7 l=1
X62 vdd.t6 CSoutput.t171 output.t16 gnd.t353 sky130_fd_pr__nfet_01v8 ad=0.825 pd=5.33 as=0.825 ps=5.33 w=5 l=1
X63 CSoutput.t15 commonsourceibias.t87 gnd.t314 gnd.t198 sky130_fd_pr__nfet_01v8 ad=1.155 pd=7.33 as=1.155 ps=7.33 w=7 l=1
X64 a_n2318_13878.t16 a_n2318_13878.t15 a_n2140_13878.t13 vdd.t18 sky130_fd_pr__pfet_01v8 ad=1.485 pd=9.33 as=1.485 ps=9.33 w=9 l=0.5
X65 gnd.t313 commonsourceibias.t88 CSoutput.t49 gnd.t261 sky130_fd_pr__nfet_01v8 ad=1.155 pd=7.33 as=1.155 ps=7.33 w=7 l=1
X66 CSoutput.t131 a_n6972_8799.t50 vdd.t219 vdd.t167 sky130_fd_pr__pfet_01v8 ad=1.32 pd=8.33 as=1.32 ps=8.33 w=8 l=0.5
X67 gnd.t312 commonsourceibias.t28 commonsourceibias.t29 gnd.t189 sky130_fd_pr__nfet_01v8 ad=1.155 pd=7.33 as=1.155 ps=7.33 w=7 l=1
X68 a_n2903_n3924.t19 minus.t8 a_n2318_13878.t48 gnd.t17 sky130_fd_pr__nfet_01v8 ad=1.155 pd=7.33 as=1.155 ps=7.33 w=7 l=0.5
X69 vdd.t87 vdd.t85 vdd.t86 vdd.t68 sky130_fd_pr__pfet_01v8 ad=3.51 pd=18.78 as=0 ps=0 w=9 l=0.5
X70 CSoutput.t60 commonsourceibias.t89 gnd.t310 gnd.t259 sky130_fd_pr__nfet_01v8 ad=1.155 pd=7.33 as=1.155 ps=7.33 w=7 l=1
X71 gnd.t121 gnd.t118 gnd.t120 gnd.t119 sky130_fd_pr__nfet_01v8 ad=1.95 pd=10.78 as=0 ps=0 w=5 l=1
X72 vdd.t216 a_n6972_8799.t51 CSoutput.t130 vdd.t188 sky130_fd_pr__pfet_01v8 ad=1.32 pd=8.33 as=1.32 ps=8.33 w=8 l=0.5
X73 gnd.t117 gnd.t115 gnd.t116 gnd.t51 sky130_fd_pr__nfet_01v8 ad=2.73 pd=14.78 as=0 ps=0 w=7 l=1
X74 CSoutput.t48 commonsourceibias.t90 gnd.t309 gnd.t231 sky130_fd_pr__nfet_01v8 ad=1.155 pd=7.33 as=1.155 ps=7.33 w=7 l=1
X75 diffpairibias.t15 diffpairibias.t14 gnd.t143 gnd.t142 sky130_fd_pr__nfet_01v8 ad=2.73 pd=14.78 as=2.73 ps=14.78 w=7 l=1
X76 CSoutput.t5 commonsourceibias.t91 gnd.t308 gnd.t183 sky130_fd_pr__nfet_01v8 ad=1.155 pd=7.33 as=2.73 ps=14.78 w=7 l=1
X77 CSoutput.t40 commonsourceibias.t92 gnd.t307 gnd.t242 sky130_fd_pr__nfet_01v8 ad=1.155 pd=7.33 as=1.155 ps=7.33 w=7 l=1
X78 gnd.t306 commonsourceibias.t93 CSoutput.t146 gnd.t200 sky130_fd_pr__nfet_01v8 ad=1.155 pd=7.33 as=1.155 ps=7.33 w=7 l=1
X79 gnd.t305 commonsourceibias.t94 CSoutput.t23 gnd.t226 sky130_fd_pr__nfet_01v8 ad=1.155 pd=7.33 as=1.155 ps=7.33 w=7 l=1
X80 a_n6972_8799.t7 a_n2318_13878.t60 a_n2318_8322.t20 vdd.t15 sky130_fd_pr__pfet_01v8 ad=1.485 pd=9.33 as=1.485 ps=9.33 w=9 l=0.5
X81 CSoutput.t129 a_n6972_8799.t52 vdd.t215 vdd.t192 sky130_fd_pr__pfet_01v8 ad=1.32 pd=8.33 as=1.32 ps=8.33 w=8 l=0.5
X82 gnd.t304 commonsourceibias.t95 CSoutput.t18 gnd.t194 sky130_fd_pr__nfet_01v8 ad=1.155 pd=7.33 as=1.155 ps=7.33 w=7 l=1
X83 a_n2318_13878.t47 minus.t9 a_n2903_n3924.t18 gnd.t12 sky130_fd_pr__nfet_01v8 ad=1.155 pd=7.33 as=2.73 ps=14.78 w=7 l=0.5
X84 gnd.t114 gnd.t112 plus.t3 gnd.t113 sky130_fd_pr__nfet_01v8 ad=0.165 pd=1.33 as=0.39 ps=2.78 w=1 l=0.5
X85 vdd.t218 a_n6972_8799.t53 CSoutput.t128 vdd.t144 sky130_fd_pr__pfet_01v8 ad=1.32 pd=8.33 as=1.32 ps=8.33 w=8 l=0.5
X86 CSoutput.t3 commonsourceibias.t96 gnd.t303 gnd.t242 sky130_fd_pr__nfet_01v8 ad=1.155 pd=7.33 as=1.155 ps=7.33 w=7 l=1
X87 diffpairibias.t13 diffpairibias.t12 gnd.t169 gnd.t168 sky130_fd_pr__nfet_01v8 ad=2.73 pd=14.78 as=2.73 ps=14.78 w=7 l=1
X88 CSoutput.t127 a_n6972_8799.t54 vdd.t217 vdd.t151 sky130_fd_pr__pfet_01v8 ad=1.32 pd=8.33 as=3.12 ps=16.78 w=8 l=0.5
X89 gnd.t302 commonsourceibias.t18 commonsourceibias.t19 gnd.t229 sky130_fd_pr__nfet_01v8 ad=1.155 pd=7.33 as=1.155 ps=7.33 w=7 l=1
X90 gnd.t301 commonsourceibias.t97 CSoutput.t33 gnd.t244 sky130_fd_pr__nfet_01v8 ad=2.73 pd=14.78 as=1.155 ps=7.33 w=7 l=1
X91 CSoutput.t26 commonsourceibias.t98 gnd.t300 gnd.t198 sky130_fd_pr__nfet_01v8 ad=1.155 pd=7.33 as=1.155 ps=7.33 w=7 l=1
X92 gnd.t299 commonsourceibias.t99 CSoutput.t28 gnd.t229 sky130_fd_pr__nfet_01v8 ad=1.155 pd=7.33 as=1.155 ps=7.33 w=7 l=1
X93 gnd.t111 gnd.t109 gnd.t110 gnd.t43 sky130_fd_pr__nfet_01v8 ad=2.73 pd=14.78 as=0 ps=0 w=7 l=1
X94 CSoutput.t39 commonsourceibias.t100 gnd.t298 gnd.t273 sky130_fd_pr__nfet_01v8 ad=1.155 pd=7.33 as=1.155 ps=7.33 w=7 l=1
X95 CSoutput.t31 commonsourceibias.t101 gnd.t297 gnd.t210 sky130_fd_pr__nfet_01v8 ad=1.155 pd=7.33 as=1.155 ps=7.33 w=7 l=1
X96 vdd.t214 a_n6972_8799.t55 CSoutput.t126 vdd.t136 sky130_fd_pr__pfet_01v8 ad=1.32 pd=8.33 as=1.32 ps=8.33 w=8 l=0.5
X97 CSoutput.t125 a_n6972_8799.t56 vdd.t213 vdd.t204 sky130_fd_pr__pfet_01v8 ad=1.32 pd=8.33 as=1.32 ps=8.33 w=8 l=0.5
X98 gnd.t296 commonsourceibias.t102 CSoutput.t161 gnd.t252 sky130_fd_pr__nfet_01v8 ad=1.155 pd=7.33 as=1.155 ps=7.33 w=7 l=1
X99 CSoutput.t124 a_n6972_8799.t57 vdd.t212 vdd.t161 sky130_fd_pr__pfet_01v8 ad=1.32 pd=8.33 as=3.12 ps=16.78 w=8 l=0.5
X100 CSoutput.t123 a_n6972_8799.t58 vdd.t211 vdd.t204 sky130_fd_pr__pfet_01v8 ad=1.32 pd=8.33 as=1.32 ps=8.33 w=8 l=0.5
X101 CSoutput.t172 a_n2318_8322.t24 sky130_fd_pr__cap_mim_m3_1 l=12 w=12
X102 plus.t2 gnd.t106 gnd.t108 gnd.t107 sky130_fd_pr__nfet_01v8 ad=0.165 pd=1.33 as=0.165 ps=1.33 w=1 l=0.5
X103 gnd.t295 commonsourceibias.t62 commonsourceibias.t63 gnd.t207 sky130_fd_pr__nfet_01v8 ad=1.155 pd=7.33 as=1.155 ps=7.33 w=7 l=1
X104 a_n6972_8799.t22 plus.t9 a_n2903_n3924.t42 gnd.t165 sky130_fd_pr__nfet_01v8 ad=1.155 pd=7.33 as=1.155 ps=7.33 w=7 l=0.5
X105 output.t15 CSoutput.t173 vdd.t7 gnd.t352 sky130_fd_pr__nfet_01v8 ad=0.825 pd=5.33 as=0.825 ps=5.33 w=5 l=1
X106 gnd.t294 commonsourceibias.t103 CSoutput.t38 gnd.t229 sky130_fd_pr__nfet_01v8 ad=1.155 pd=7.33 as=1.155 ps=7.33 w=7 l=1
X107 a_n2903_n3924.t12 diffpairibias.t17 gnd.t147 gnd.t146 sky130_fd_pr__nfet_01v8 ad=2.73 pd=14.78 as=2.73 ps=14.78 w=7 l=1
X108 gnd.t105 gnd.t103 gnd.t104 gnd.t39 sky130_fd_pr__nfet_01v8 ad=2.73 pd=14.78 as=0 ps=0 w=7 l=1
X109 a_n2903_n3924.t17 minus.t10 a_n2318_13878.t46 gnd.t154 sky130_fd_pr__nfet_01v8 ad=1.155 pd=7.33 as=1.155 ps=7.33 w=7 l=0.5
X110 a_n2318_13878.t14 a_n2318_13878.t13 a_n2140_13878.t12 vdd.t133 sky130_fd_pr__pfet_01v8 ad=1.485 pd=9.33 as=1.485 ps=9.33 w=9 l=0.5
X111 vdd.t210 a_n6972_8799.t59 CSoutput.t122 vdd.t171 sky130_fd_pr__pfet_01v8 ad=1.32 pd=8.33 as=1.32 ps=8.33 w=8 l=0.5
X112 gnd.t293 commonsourceibias.t104 CSoutput.t67 gnd.t220 sky130_fd_pr__nfet_01v8 ad=1.155 pd=7.33 as=1.155 ps=7.33 w=7 l=1
X113 a_n6972_8799.t8 a_n2318_13878.t61 a_n2318_8322.t19 vdd.t16 sky130_fd_pr__pfet_01v8 ad=1.485 pd=9.33 as=1.485 ps=9.33 w=9 l=0.5
X114 vdd.t209 a_n6972_8799.t60 CSoutput.t121 vdd.t202 sky130_fd_pr__pfet_01v8 ad=1.32 pd=8.33 as=1.32 ps=8.33 w=8 l=0.5
X115 a_n2318_13878.t26 a_n2318_13878.t25 a_n2140_13878.t11 vdd.t4 sky130_fd_pr__pfet_01v8 ad=3.51 pd=18.78 as=1.485 ps=9.33 w=9 l=0.5
X116 a_n2318_13878.t49 minus.t11 a_n2903_n3924.t20 gnd.t155 sky130_fd_pr__nfet_01v8 ad=1.155 pd=7.33 as=1.155 ps=7.33 w=7 l=0.5
X117 gnd.t102 gnd.t100 gnd.t101 gnd.t39 sky130_fd_pr__nfet_01v8 ad=2.73 pd=14.78 as=0 ps=0 w=7 l=1
X118 a_n2903_n3924.t41 plus.t10 a_n6972_8799.t27 gnd.t166 sky130_fd_pr__nfet_01v8 ad=1.155 pd=7.33 as=1.155 ps=7.33 w=7 l=0.5
X119 CSoutput.t160 commonsourceibias.t105 gnd.t292 gnd.t234 sky130_fd_pr__nfet_01v8 ad=1.155 pd=7.33 as=1.155 ps=7.33 w=7 l=1
X120 vdd.t208 a_n6972_8799.t61 CSoutput.t120 vdd.t148 sky130_fd_pr__pfet_01v8 ad=1.32 pd=8.33 as=1.32 ps=8.33 w=8 l=0.5
X121 CSoutput.t119 a_n6972_8799.t62 vdd.t207 vdd.t175 sky130_fd_pr__pfet_01v8 ad=1.32 pd=8.33 as=1.32 ps=8.33 w=8 l=0.5
X122 gnd.t291 commonsourceibias.t106 CSoutput.t66 gnd.t191 sky130_fd_pr__nfet_01v8 ad=1.155 pd=7.33 as=1.155 ps=7.33 w=7 l=1
X123 a_n2903_n3924.t7 minus.t12 a_n2318_13878.t7 gnd.t11 sky130_fd_pr__nfet_01v8 ad=2.73 pd=14.78 as=1.155 ps=7.33 w=7 l=0.5
X124 output.t14 CSoutput.t174 vdd.t107 gnd.t351 sky130_fd_pr__nfet_01v8 ad=0.825 pd=5.33 as=0.825 ps=5.33 w=5 l=1
X125 vdd.t84 vdd.t82 vdd.t83 vdd.t72 sky130_fd_pr__pfet_01v8 ad=3.51 pd=18.78 as=0 ps=0 w=9 l=0.5
X126 vdd.t81 vdd.t79 vdd.t80 vdd.t34 sky130_fd_pr__pfet_01v8 ad=3.12 pd=16.78 as=0 ps=0 w=8 l=0.5
X127 gnd.t290 commonsourceibias.t32 commonsourceibias.t33 gnd.t196 sky130_fd_pr__nfet_01v8 ad=1.155 pd=7.33 as=1.155 ps=7.33 w=7 l=1
X128 gnd.t289 commonsourceibias.t107 CSoutput.t19 gnd.t217 sky130_fd_pr__nfet_01v8 ad=1.155 pd=7.33 as=1.155 ps=7.33 w=7 l=1
X129 CSoutput.t118 a_n6972_8799.t63 vdd.t206 vdd.t151 sky130_fd_pr__pfet_01v8 ad=1.32 pd=8.33 as=3.12 ps=16.78 w=8 l=0.5
X130 vdd.t78 vdd.t75 vdd.t77 vdd.t76 sky130_fd_pr__pfet_01v8 ad=3.51 pd=18.78 as=0 ps=0 w=9 l=0.5
X131 output.t1 outputibias.t9 gnd.t173 gnd.t172 sky130_fd_pr__nfet_01v8 ad=2.34 pd=12.78 as=2.34 ps=12.78 w=6 l=2
X132 CSoutput.t175 a_n2318_8322.t26 sky130_fd_pr__cap_mim_m3_1 l=12 w=12
X133 vdd.t127 a_n2318_13878.t62 a_n2318_8322.t7 vdd.t126 sky130_fd_pr__pfet_01v8 ad=1.485 pd=9.33 as=1.485 ps=9.33 w=9 l=0.5
X134 a_n2318_13878.t38 a_n2318_13878.t37 a_n2140_13878.t10 vdd.t19 sky130_fd_pr__pfet_01v8 ad=3.51 pd=18.78 as=1.485 ps=9.33 w=9 l=0.5
X135 a_n2318_8322.t6 a_n2318_13878.t63 vdd.t129 vdd.t128 sky130_fd_pr__pfet_01v8 ad=1.485 pd=9.33 as=1.485 ps=9.33 w=9 l=0.5
X136 gnd.t288 commonsourceibias.t108 CSoutput.t152 gnd.t244 sky130_fd_pr__nfet_01v8 ad=2.73 pd=14.78 as=1.155 ps=7.33 w=7 l=1
X137 a_n2903_n3924.t55 diffpairibias.t18 gnd.t364 gnd.t363 sky130_fd_pr__nfet_01v8 ad=2.73 pd=14.78 as=2.73 ps=14.78 w=7 l=1
X138 output.t13 CSoutput.t176 vdd.t108 gnd.t350 sky130_fd_pr__nfet_01v8 ad=0.825 pd=5.33 as=0.825 ps=5.33 w=5 l=1
X139 CSoutput.t117 a_n6972_8799.t64 vdd.t205 vdd.t204 sky130_fd_pr__pfet_01v8 ad=1.32 pd=8.33 as=1.32 ps=8.33 w=8 l=0.5
X140 vdd.t234 CSoutput.t177 output.t12 gnd.t349 sky130_fd_pr__nfet_01v8 ad=0.825 pd=5.33 as=0.825 ps=5.33 w=5 l=1
X141 gnd.t287 commonsourceibias.t109 CSoutput.t68 gnd.t265 sky130_fd_pr__nfet_01v8 ad=1.155 pd=7.33 as=1.155 ps=7.33 w=7 l=1
X142 a_n2318_13878.t42 minus.t13 a_n2903_n3924.t11 gnd.t19 sky130_fd_pr__nfet_01v8 ad=1.155 pd=7.33 as=1.155 ps=7.33 w=7 l=0.5
X143 gnd.t286 commonsourceibias.t30 commonsourceibias.t31 gnd.t200 sky130_fd_pr__nfet_01v8 ad=1.155 pd=7.33 as=1.155 ps=7.33 w=7 l=1
X144 CSoutput.t69 commonsourceibias.t110 gnd.t285 gnd.t273 sky130_fd_pr__nfet_01v8 ad=1.155 pd=7.33 as=1.155 ps=7.33 w=7 l=1
X145 gnd.t284 commonsourceibias.t111 CSoutput.t65 gnd.t207 sky130_fd_pr__nfet_01v8 ad=1.155 pd=7.33 as=1.155 ps=7.33 w=7 l=1
X146 CSoutput.t51 commonsourceibias.t112 gnd.t283 gnd.t181 sky130_fd_pr__nfet_01v8 ad=1.155 pd=7.33 as=2.73 ps=14.78 w=7 l=1
X147 CSoutput.t53 commonsourceibias.t113 gnd.t282 gnd.t269 sky130_fd_pr__nfet_01v8 ad=1.155 pd=7.33 as=1.155 ps=7.33 w=7 l=1
X148 CSoutput.t178 a_n2318_8322.t25 sky130_fd_pr__cap_mim_m3_1 l=12 w=12
X149 a_n2903_n3924.t40 plus.t11 a_n6972_8799.t32 gnd.t176 sky130_fd_pr__nfet_01v8 ad=1.155 pd=7.33 as=1.155 ps=7.33 w=7 l=0.5
X150 vdd.t12 a_n2318_13878.t64 a_n2140_13878.t22 vdd.t11 sky130_fd_pr__pfet_01v8 ad=1.485 pd=9.33 as=1.485 ps=9.33 w=9 l=0.5
X151 gnd.t99 gnd.t97 minus.t3 gnd.t98 sky130_fd_pr__nfet_01v8 ad=0.165 pd=1.33 as=0.39 ps=2.78 w=1 l=0.5
X152 vdd.t74 vdd.t71 vdd.t73 vdd.t72 sky130_fd_pr__pfet_01v8 ad=3.51 pd=18.78 as=0 ps=0 w=9 l=0.5
X153 gnd.t96 gnd.t94 gnd.t95 gnd.t39 sky130_fd_pr__nfet_01v8 ad=2.73 pd=14.78 as=0 ps=0 w=7 l=1
X154 vdd.t203 a_n6972_8799.t65 CSoutput.t116 vdd.t202 sky130_fd_pr__pfet_01v8 ad=1.32 pd=8.33 as=1.32 ps=8.33 w=8 l=0.5
X155 a_n6972_8799.t25 plus.t12 a_n2903_n3924.t39 gnd.t167 sky130_fd_pr__nfet_01v8 ad=1.155 pd=7.33 as=2.73 ps=14.78 w=7 l=0.5
X156 vdd.t70 vdd.t67 vdd.t69 vdd.t68 sky130_fd_pr__pfet_01v8 ad=3.51 pd=18.78 as=0 ps=0 w=9 l=0.5
X157 a_n2318_8322.t5 a_n2318_13878.t65 vdd.t14 vdd.t13 sky130_fd_pr__pfet_01v8 ad=3.51 pd=18.78 as=1.485 ps=9.33 w=9 l=0.5
X158 a_n2318_13878.t6 minus.t14 a_n2903_n3924.t6 gnd.t9 sky130_fd_pr__nfet_01v8 ad=1.155 pd=7.33 as=1.155 ps=7.33 w=7 l=0.5
X159 a_n6972_8799.t23 a_n2318_13878.t66 a_n2318_8322.t18 vdd.t113 sky130_fd_pr__pfet_01v8 ad=1.485 pd=9.33 as=1.485 ps=9.33 w=9 l=0.5
X160 diffpairibias.t11 diffpairibias.t10 gnd.t14 gnd.t13 sky130_fd_pr__nfet_01v8 ad=2.73 pd=14.78 as=2.73 ps=14.78 w=7 l=1
X161 a_n2318_13878.t12 a_n2318_13878.t11 a_n2140_13878.t9 vdd.t5 sky130_fd_pr__pfet_01v8 ad=1.485 pd=9.33 as=1.485 ps=9.33 w=9 l=0.5
X162 vdd.t201 a_n6972_8799.t66 CSoutput.t115 vdd.t148 sky130_fd_pr__pfet_01v8 ad=1.32 pd=8.33 as=1.32 ps=8.33 w=8 l=0.5
X163 CSoutput.t54 commonsourceibias.t114 gnd.t281 gnd.t237 sky130_fd_pr__nfet_01v8 ad=1.155 pd=7.33 as=1.155 ps=7.33 w=7 l=1
X164 a_n6972_8799.t24 a_n2318_13878.t67 a_n2318_8322.t17 vdd.t114 sky130_fd_pr__pfet_01v8 ad=1.485 pd=9.33 as=1.485 ps=9.33 w=9 l=0.5
X165 CSoutput.t114 a_n6972_8799.t67 vdd.t200 vdd.t175 sky130_fd_pr__pfet_01v8 ad=1.32 pd=8.33 as=1.32 ps=8.33 w=8 l=0.5
X166 commonsourceibias.t37 commonsourceibias.t36 gnd.t280 gnd.t179 sky130_fd_pr__nfet_01v8 ad=1.155 pd=7.33 as=1.155 ps=7.33 w=7 l=1
X167 output.t11 CSoutput.t179 vdd.t235 gnd.t348 sky130_fd_pr__nfet_01v8 ad=0.825 pd=5.33 as=0.825 ps=5.33 w=5 l=1
X168 gnd.t279 commonsourceibias.t115 CSoutput.t55 gnd.t261 sky130_fd_pr__nfet_01v8 ad=1.155 pd=7.33 as=1.155 ps=7.33 w=7 l=1
X169 a_n2140_13878.t8 a_n2318_13878.t31 a_n2318_13878.t32 vdd.t16 sky130_fd_pr__pfet_01v8 ad=1.485 pd=9.33 as=1.485 ps=9.33 w=9 l=0.5
X170 vdd.t66 vdd.t64 vdd.t65 vdd.t34 sky130_fd_pr__pfet_01v8 ad=3.12 pd=16.78 as=0 ps=0 w=8 l=0.5
X171 gnd.t93 gnd.t90 gnd.t92 gnd.t91 sky130_fd_pr__nfet_01v8 ad=1.95 pd=10.78 as=0 ps=0 w=5 l=1
X172 CSoutput.t56 commonsourceibias.t116 gnd.t278 gnd.t234 sky130_fd_pr__nfet_01v8 ad=1.155 pd=7.33 as=1.155 ps=7.33 w=7 l=1
X173 a_n6972_8799.t1 plus.t13 a_n2903_n3924.t38 gnd.t10 sky130_fd_pr__nfet_01v8 ad=1.155 pd=7.33 as=1.155 ps=7.33 w=7 l=0.5
X174 a_n2903_n3924.t2 minus.t15 a_n2318_13878.t2 gnd.t4 sky130_fd_pr__nfet_01v8 ad=1.155 pd=7.33 as=1.155 ps=7.33 w=7 l=0.5
X175 a_n2903_n3924.t13 minus.t16 a_n2318_13878.t43 gnd.t148 sky130_fd_pr__nfet_01v8 ad=2.73 pd=14.78 as=1.155 ps=7.33 w=7 l=0.5
X176 output.t10 CSoutput.t180 vdd.t97 gnd.t347 sky130_fd_pr__nfet_01v8 ad=0.825 pd=5.33 as=0.825 ps=5.33 w=5 l=1
X177 CSoutput.t113 a_n6972_8799.t68 vdd.t199 vdd.t192 sky130_fd_pr__pfet_01v8 ad=1.32 pd=8.33 as=1.32 ps=8.33 w=8 l=0.5
X178 a_n2318_13878.t5 minus.t17 a_n2903_n3924.t5 gnd.t8 sky130_fd_pr__nfet_01v8 ad=1.155 pd=7.33 as=1.155 ps=7.33 w=7 l=0.5
X179 CSoutput.t11 commonsourceibias.t117 gnd.t277 gnd.t231 sky130_fd_pr__nfet_01v8 ad=1.155 pd=7.33 as=1.155 ps=7.33 w=7 l=1
X180 gnd.t89 gnd.t87 gnd.t88 gnd.t47 sky130_fd_pr__nfet_01v8 ad=2.73 pd=14.78 as=0 ps=0 w=7 l=1
X181 vdd.t123 a_n2318_13878.t68 a_n2318_8322.t4 vdd.t122 sky130_fd_pr__pfet_01v8 ad=1.485 pd=9.33 as=3.51 ps=18.78 w=9 l=0.5
X182 a_n2140_13878.t7 a_n2318_13878.t35 a_n2318_13878.t36 vdd.t105 sky130_fd_pr__pfet_01v8 ad=1.485 pd=9.33 as=3.51 ps=18.78 w=9 l=0.5
X183 outputibias.t7 outputibias.t6 gnd.t161 gnd.t160 sky130_fd_pr__nfet_01v8 ad=2.34 pd=12.78 as=2.34 ps=12.78 w=6 l=2
X184 vdd.t198 a_n6972_8799.t69 CSoutput.t112 vdd.t190 sky130_fd_pr__pfet_01v8 ad=1.32 pd=8.33 as=1.32 ps=8.33 w=8 l=0.5
X185 gnd.t276 commonsourceibias.t118 CSoutput.t155 gnd.t226 sky130_fd_pr__nfet_01v8 ad=1.155 pd=7.33 as=1.155 ps=7.33 w=7 l=1
X186 gnd.t275 commonsourceibias.t119 CSoutput.t1 gnd.t252 sky130_fd_pr__nfet_01v8 ad=1.155 pd=7.33 as=1.155 ps=7.33 w=7 l=1
X187 a_n2318_13878.t20 a_n2318_13878.t19 a_n2140_13878.t6 vdd.t115 sky130_fd_pr__pfet_01v8 ad=1.485 pd=9.33 as=1.485 ps=9.33 w=9 l=0.5
X188 commonsourceibias.t35 commonsourceibias.t34 gnd.t274 gnd.t273 sky130_fd_pr__nfet_01v8 ad=1.155 pd=7.33 as=1.155 ps=7.33 w=7 l=1
X189 gnd.t272 commonsourceibias.t120 CSoutput.t34 gnd.t212 sky130_fd_pr__nfet_01v8 ad=2.73 pd=14.78 as=1.155 ps=7.33 w=7 l=1
X190 outputibias.t5 outputibias.t4 gnd.t157 gnd.t156 sky130_fd_pr__nfet_01v8 ad=2.34 pd=12.78 as=2.34 ps=12.78 w=6 l=2
X191 CSoutput.t8 commonsourceibias.t121 gnd.t271 gnd.t223 sky130_fd_pr__nfet_01v8 ad=1.155 pd=7.33 as=1.155 ps=7.33 w=7 l=1
X192 a_n2903_n3924.t9 diffpairibias.t19 gnd.t16 gnd.t15 sky130_fd_pr__nfet_01v8 ad=2.73 pd=14.78 as=2.73 ps=14.78 w=7 l=1
X193 gnd.t34 gnd.t31 gnd.t33 gnd.t32 sky130_fd_pr__nfet_01v8 ad=2.73 pd=14.78 as=0 ps=0 w=7 l=1
X194 a_n2903_n3924.t51 diffpairibias.t20 gnd.t358 gnd.t357 sky130_fd_pr__nfet_01v8 ad=2.73 pd=14.78 as=2.73 ps=14.78 w=7 l=1
X195 commonsourceibias.t25 commonsourceibias.t24 gnd.t270 gnd.t269 sky130_fd_pr__nfet_01v8 ad=1.155 pd=7.33 as=1.155 ps=7.33 w=7 l=1
X196 a_n2318_13878.t1 minus.t18 a_n2903_n3924.t1 gnd.t3 sky130_fd_pr__nfet_01v8 ad=1.155 pd=7.33 as=1.155 ps=7.33 w=7 l=0.5
X197 vdd.t197 a_n6972_8799.t70 CSoutput.t111 vdd.t159 sky130_fd_pr__pfet_01v8 ad=3.12 pd=16.78 as=1.32 ps=8.33 w=8 l=0.5
X198 gnd.t86 gnd.t84 gnd.t85 gnd.t51 sky130_fd_pr__nfet_01v8 ad=2.73 pd=14.78 as=0 ps=0 w=7 l=1
X199 gnd.t83 gnd.t81 gnd.t82 gnd.t47 sky130_fd_pr__nfet_01v8 ad=2.73 pd=14.78 as=0 ps=0 w=7 l=1
X200 gnd.t80 gnd.t78 minus.t2 gnd.t79 sky130_fd_pr__nfet_01v8 ad=0.165 pd=1.33 as=0.165 ps=1.33 w=1 l=0.5
X201 vdd.t98 CSoutput.t181 output.t9 gnd.t346 sky130_fd_pr__nfet_01v8 ad=0.825 pd=5.33 as=0.825 ps=5.33 w=5 l=1
X202 CSoutput.t145 commonsourceibias.t122 gnd.t268 gnd.t237 sky130_fd_pr__nfet_01v8 ad=1.155 pd=7.33 as=1.155 ps=7.33 w=7 l=1
X203 CSoutput.t144 commonsourceibias.t123 gnd.t267 gnd.t210 sky130_fd_pr__nfet_01v8 ad=1.155 pd=7.33 as=1.155 ps=7.33 w=7 l=1
X204 CSoutput.t110 a_n6972_8799.t71 vdd.t196 vdd.t195 sky130_fd_pr__pfet_01v8 ad=1.32 pd=8.33 as=1.32 ps=8.33 w=8 l=0.5
X205 commonsourceibias.t7 commonsourceibias.t6 gnd.t186 gnd.t185 sky130_fd_pr__nfet_01v8 ad=1.155 pd=7.33 as=1.155 ps=7.33 w=7 l=1
X206 a_n2318_13878.t45 minus.t19 a_n2903_n3924.t16 gnd.t153 sky130_fd_pr__nfet_01v8 ad=1.155 pd=7.33 as=1.155 ps=7.33 w=7 l=0.5
X207 CSoutput.t109 a_n6972_8799.t72 vdd.t194 vdd.t179 sky130_fd_pr__pfet_01v8 ad=1.32 pd=8.33 as=1.32 ps=8.33 w=8 l=0.5
X208 gnd.t266 commonsourceibias.t22 commonsourceibias.t23 gnd.t265 sky130_fd_pr__nfet_01v8 ad=1.155 pd=7.33 as=1.155 ps=7.33 w=7 l=1
X209 vdd.t99 CSoutput.t182 output.t8 gnd.t345 sky130_fd_pr__nfet_01v8 ad=0.825 pd=5.33 as=0.825 ps=5.33 w=5 l=1
X210 diffpairibias.t9 diffpairibias.t8 gnd.t178 gnd.t177 sky130_fd_pr__nfet_01v8 ad=2.73 pd=14.78 as=2.73 ps=14.78 w=7 l=1
X211 a_n2140_13878.t21 a_n2318_13878.t69 vdd.t125 vdd.t124 sky130_fd_pr__pfet_01v8 ad=1.485 pd=9.33 as=1.485 ps=9.33 w=9 l=0.5
X212 vdd.t9 a_n2318_13878.t70 a_n2140_13878.t20 vdd.t8 sky130_fd_pr__pfet_01v8 ad=1.485 pd=9.33 as=1.485 ps=9.33 w=9 l=0.5
X213 CSoutput.t143 commonsourceibias.t124 gnd.t264 gnd.t223 sky130_fd_pr__nfet_01v8 ad=1.155 pd=7.33 as=1.155 ps=7.33 w=7 l=1
X214 CSoutput.t4 commonsourceibias.t125 gnd.t263 gnd.t187 sky130_fd_pr__nfet_01v8 ad=1.155 pd=7.33 as=1.155 ps=7.33 w=7 l=1
X215 CSoutput.t108 a_n6972_8799.t73 vdd.t193 vdd.t192 sky130_fd_pr__pfet_01v8 ad=1.32 pd=8.33 as=1.32 ps=8.33 w=8 l=0.5
X216 a_n2903_n3924.t37 plus.t14 a_n6972_8799.t0 gnd.t6 sky130_fd_pr__nfet_01v8 ad=1.155 pd=7.33 as=1.155 ps=7.33 w=7 l=0.5
X217 gnd.t262 commonsourceibias.t20 commonsourceibias.t21 gnd.t261 sky130_fd_pr__nfet_01v8 ad=1.155 pd=7.33 as=1.155 ps=7.33 w=7 l=1
X218 vdd.t191 a_n6972_8799.t74 CSoutput.t107 vdd.t190 sky130_fd_pr__pfet_01v8 ad=1.32 pd=8.33 as=1.32 ps=8.33 w=8 l=0.5
X219 commonsourceibias.t15 commonsourceibias.t14 gnd.t260 gnd.t259 sky130_fd_pr__nfet_01v8 ad=1.155 pd=7.33 as=1.155 ps=7.33 w=7 l=1
X220 outputibias.t3 outputibias.t2 gnd.t164 gnd.t163 sky130_fd_pr__nfet_01v8 ad=2.34 pd=12.78 as=2.34 ps=12.78 w=6 l=2
X221 a_n2903_n3924.t14 minus.t20 a_n2318_13878.t44 gnd.t139 sky130_fd_pr__nfet_01v8 ad=1.155 pd=7.33 as=1.155 ps=7.33 w=7 l=0.5
X222 a_n2140_13878.t5 a_n2318_13878.t17 a_n2318_13878.t18 vdd.t15 sky130_fd_pr__pfet_01v8 ad=1.485 pd=9.33 as=1.485 ps=9.33 w=9 l=0.5
X223 a_n2903_n3924.t36 plus.t15 a_n6972_8799.t17 gnd.t5 sky130_fd_pr__nfet_01v8 ad=1.155 pd=7.33 as=1.155 ps=7.33 w=7 l=0.5
X224 gnd.t258 commonsourceibias.t126 CSoutput.t44 gnd.t202 sky130_fd_pr__nfet_01v8 ad=1.155 pd=7.33 as=1.155 ps=7.33 w=7 l=1
X225 a_n2903_n3924.t4 minus.t21 a_n2318_13878.t4 gnd.t7 sky130_fd_pr__nfet_01v8 ad=1.155 pd=7.33 as=1.155 ps=7.33 w=7 l=0.5
X226 commonsourceibias.t5 commonsourceibias.t4 gnd.t184 gnd.t183 sky130_fd_pr__nfet_01v8 ad=1.155 pd=7.33 as=2.73 ps=14.78 w=7 l=1
X227 a_n6972_8799.t37 plus.t16 a_n2903_n3924.t35 gnd.t18 sky130_fd_pr__nfet_01v8 ad=1.155 pd=7.33 as=1.155 ps=7.33 w=7 l=0.5
X228 gnd.t257 commonsourceibias.t12 commonsourceibias.t13 gnd.t194 sky130_fd_pr__nfet_01v8 ad=1.155 pd=7.33 as=1.155 ps=7.33 w=7 l=1
X229 a_n2318_8322.t16 a_n2318_13878.t71 a_n6972_8799.t6 vdd.t10 sky130_fd_pr__pfet_01v8 ad=1.485 pd=9.33 as=1.485 ps=9.33 w=9 l=0.5
X230 CSoutput.t156 commonsourceibias.t127 gnd.t256 gnd.t198 sky130_fd_pr__nfet_01v8 ad=1.155 pd=7.33 as=1.155 ps=7.33 w=7 l=1
X231 CSoutput.t106 a_n6972_8799.t75 vdd.t174 vdd.t156 sky130_fd_pr__pfet_01v8 ad=1.32 pd=8.33 as=1.32 ps=8.33 w=8 l=0.5
X232 diffpairibias.t7 diffpairibias.t6 gnd.t175 gnd.t174 sky130_fd_pr__nfet_01v8 ad=2.73 pd=14.78 as=2.73 ps=14.78 w=7 l=1
X233 vdd.t189 a_n6972_8799.t76 CSoutput.t105 vdd.t188 sky130_fd_pr__pfet_01v8 ad=1.32 pd=8.33 as=1.32 ps=8.33 w=8 l=0.5
X234 commonsourceibias.t11 commonsourceibias.t10 gnd.t255 gnd.t242 sky130_fd_pr__nfet_01v8 ad=1.155 pd=7.33 as=1.155 ps=7.33 w=7 l=1
X235 vdd.t110 a_n2318_13878.t72 a_n2318_8322.t3 vdd.t109 sky130_fd_pr__pfet_01v8 ad=1.485 pd=9.33 as=3.51 ps=18.78 w=9 l=0.5
X236 vdd.t187 a_n6972_8799.t77 CSoutput.t104 vdd.t159 sky130_fd_pr__pfet_01v8 ad=3.12 pd=16.78 as=1.32 ps=8.33 w=8 l=0.5
X237 gnd.t254 commonsourceibias.t128 CSoutput.t157 gnd.t202 sky130_fd_pr__nfet_01v8 ad=1.155 pd=7.33 as=1.155 ps=7.33 w=7 l=1
X238 gnd.t253 commonsourceibias.t8 commonsourceibias.t9 gnd.t252 sky130_fd_pr__nfet_01v8 ad=1.155 pd=7.33 as=1.155 ps=7.33 w=7 l=1
X239 CSoutput.t30 commonsourceibias.t129 gnd.t251 gnd.t181 sky130_fd_pr__nfet_01v8 ad=1.155 pd=7.33 as=2.73 ps=14.78 w=7 l=1
X240 a_n2140_13878.t19 a_n2318_13878.t73 vdd.t112 vdd.t111 sky130_fd_pr__pfet_01v8 ad=3.51 pd=18.78 as=1.485 ps=9.33 w=9 l=0.5
X241 plus.t1 gnd.t75 gnd.t77 gnd.t76 sky130_fd_pr__nfet_01v8 ad=0.165 pd=1.33 as=0.165 ps=1.33 w=1 l=0.5
X242 output.t7 CSoutput.t183 vdd.t130 gnd.t344 sky130_fd_pr__nfet_01v8 ad=0.825 pd=5.33 as=0.825 ps=5.33 w=5 l=1
X243 vdd.t186 a_n6972_8799.t78 CSoutput.t103 vdd.t171 sky130_fd_pr__pfet_01v8 ad=1.32 pd=8.33 as=1.32 ps=8.33 w=8 l=0.5
X244 CSoutput.t102 a_n6972_8799.t79 vdd.t180 vdd.t179 sky130_fd_pr__pfet_01v8 ad=1.32 pd=8.33 as=1.32 ps=8.33 w=8 l=0.5
X245 CSoutput.t101 a_n6972_8799.t80 vdd.t185 vdd.t169 sky130_fd_pr__pfet_01v8 ad=1.32 pd=8.33 as=1.32 ps=8.33 w=8 l=0.5
X246 gnd.t74 gnd.t71 gnd.t73 gnd.t72 sky130_fd_pr__nfet_01v8 ad=2.73 pd=14.78 as=0 ps=0 w=7 l=0.5
X247 gnd.t250 commonsourceibias.t130 CSoutput.t46 gnd.t200 sky130_fd_pr__nfet_01v8 ad=1.155 pd=7.33 as=1.155 ps=7.33 w=7 l=1
X248 gnd.t70 gnd.t68 minus.t1 gnd.t69 sky130_fd_pr__nfet_01v8 ad=0.39 pd=2.78 as=0.165 ps=1.33 w=1 l=0.5