* NGSPICE file created from opamp561.ext - technology: sky130A

.subckt opamp561 gnd CSoutput output vdd plus minus commonsourceibias outputibias
+ diffpairibias
X0 a_n2804_13878# a_n2982_13878# a_n2982_13878# vdd sky130_fd_pr__pfet_01v8 ad=1.485 pd=9.33 as=1.485 ps=9.33 w=9 l=0.5
X1 a_n2804_13878# a_n2982_13878# vdd vdd sky130_fd_pr__pfet_01v8 ad=1.485 pd=9.33 as=1.485 ps=9.33 w=9 l=0.5
X2 vdd a_n8300_8799# CSoutput vdd sky130_fd_pr__pfet_01v8 ad=1.32 pd=8.33 as=1.32 ps=8.33 w=8 l=0.5
X3 CSoutput a_n8300_8799# vdd vdd sky130_fd_pr__pfet_01v8 ad=1.32 pd=8.33 as=3.12 ps=16.78 w=8 l=0.5
X4 gnd gnd gnd gnd sky130_fd_pr__nfet_01v8 ad=2.73 pd=14.78 as=292.92 ps=1.65752k w=7 l=1
X5 a_n3827_n3924# diffpairibias gnd gnd sky130_fd_pr__nfet_01v8 ad=2.73 pd=14.78 as=2.73 ps=14.78 w=7 l=1
X6 gnd commonsourceibias CSoutput gnd sky130_fd_pr__nfet_01v8 ad=1.155 pd=7.33 as=1.155 ps=7.33 w=7 l=1
X7 gnd gnd gnd gnd sky130_fd_pr__nfet_01v8 ad=1.95 pd=10.78 as=0 ps=0 w=5 l=1
X8 commonsourceibias commonsourceibias gnd gnd sky130_fd_pr__nfet_01v8 ad=1.155 pd=7.33 as=1.155 ps=7.33 w=7 l=1
X9 a_n2982_8322# a_n2982_13878# a_n8300_8799# vdd sky130_fd_pr__pfet_01v8 ad=1.485 pd=9.33 as=1.485 ps=9.33 w=9 l=0.5
X10 CSoutput commonsourceibias gnd gnd sky130_fd_pr__nfet_01v8 ad=1.155 pd=7.33 as=1.155 ps=7.33 w=7 l=1
X11 gnd gnd gnd gnd sky130_fd_pr__nfet_01v8 ad=2.73 pd=14.78 as=0 ps=0 w=7 l=1
X12 vdd CSoutput output gnd sky130_fd_pr__nfet_01v8 ad=0.825 pd=5.33 as=0.825 ps=5.33 w=5 l=1
X13 gnd gnd gnd gnd sky130_fd_pr__nfet_01v8 ad=2.73 pd=14.78 as=0 ps=0 w=7 l=0.5
X14 CSoutput a_n8300_8799# vdd vdd sky130_fd_pr__pfet_01v8 ad=1.32 pd=8.33 as=1.32 ps=8.33 w=8 l=0.5
X15 vdd a_n8300_8799# CSoutput vdd sky130_fd_pr__pfet_01v8 ad=3.12 pd=16.78 as=1.32 ps=8.33 w=8 l=0.5
X16 minus gnd gnd gnd sky130_fd_pr__nfet_01v8 ad=0.165 pd=1.33 as=0.165 ps=1.33 w=1 l=0.5
X17 gnd gnd plus gnd sky130_fd_pr__nfet_01v8 ad=0.165 pd=1.33 as=0.165 ps=1.33 w=1 l=0.5
X18 a_n8300_8799# plus a_n3827_n3924# gnd sky130_fd_pr__nfet_01v8 ad=1.155 pd=7.33 as=1.155 ps=7.33 w=7 l=0.5
X19 gnd gnd gnd gnd sky130_fd_pr__nfet_01v8 ad=2.73 pd=14.78 as=0 ps=0 w=7 l=0.5
X20 gnd gnd gnd gnd sky130_fd_pr__nfet_01v8 ad=2.73 pd=14.78 as=0 ps=0 w=7 l=1
X21 gnd commonsourceibias commonsourceibias gnd sky130_fd_pr__nfet_01v8 ad=2.73 pd=14.78 as=1.155 ps=7.33 w=7 l=1
X22 CSoutput commonsourceibias gnd gnd sky130_fd_pr__nfet_01v8 ad=1.155 pd=7.33 as=1.155 ps=7.33 w=7 l=1
X23 a_n8300_8799# a_n2982_13878# a_n2982_8322# vdd sky130_fd_pr__pfet_01v8 ad=1.485 pd=9.33 as=1.485 ps=9.33 w=9 l=0.5
X24 commonsourceibias commonsourceibias gnd gnd sky130_fd_pr__nfet_01v8 ad=1.155 pd=7.33 as=1.155 ps=7.33 w=7 l=1
X25 vdd a_n8300_8799# CSoutput vdd sky130_fd_pr__pfet_01v8 ad=1.32 pd=8.33 as=1.32 ps=8.33 w=8 l=0.5
X26 CSoutput commonsourceibias gnd gnd sky130_fd_pr__nfet_01v8 ad=1.155 pd=7.33 as=1.155 ps=7.33 w=7 l=1
X27 vdd a_n8300_8799# CSoutput vdd sky130_fd_pr__pfet_01v8 ad=1.32 pd=8.33 as=1.32 ps=8.33 w=8 l=0.5
X28 a_n8300_8799# a_n2982_13878# a_n2982_8322# vdd sky130_fd_pr__pfet_01v8 ad=1.485 pd=9.33 as=3.51 ps=18.78 w=9 l=0.5
X29 a_n8300_8799# plus a_n3827_n3924# gnd sky130_fd_pr__nfet_01v8 ad=1.155 pd=7.33 as=1.155 ps=7.33 w=7 l=0.5
X30 gnd gnd gnd gnd sky130_fd_pr__nfet_01v8 ad=2.73 pd=14.78 as=0 ps=0 w=7 l=1
X31 CSoutput a_n8300_8799# vdd vdd sky130_fd_pr__pfet_01v8 ad=1.32 pd=8.33 as=1.32 ps=8.33 w=8 l=0.5
X32 a_n3827_n3924# minus a_n2982_13878# gnd sky130_fd_pr__nfet_01v8 ad=1.155 pd=7.33 as=1.155 ps=7.33 w=7 l=0.5
X33 a_n3827_n3924# diffpairibias gnd gnd sky130_fd_pr__nfet_01v8 ad=2.73 pd=14.78 as=2.73 ps=14.78 w=7 l=1
X34 CSoutput commonsourceibias gnd gnd sky130_fd_pr__nfet_01v8 ad=1.155 pd=7.33 as=1.155 ps=7.33 w=7 l=1
X35 vdd a_n8300_8799# CSoutput vdd sky130_fd_pr__pfet_01v8 ad=1.32 pd=8.33 as=1.32 ps=8.33 w=8 l=0.5
X36 a_n2982_13878# minus a_n3827_n3924# gnd sky130_fd_pr__nfet_01v8 ad=1.155 pd=7.33 as=1.155 ps=7.33 w=7 l=0.5
X37 a_n3827_n3924# plus a_n8300_8799# gnd sky130_fd_pr__nfet_01v8 ad=1.155 pd=7.33 as=1.155 ps=7.33 w=7 l=0.5
X38 gnd commonsourceibias CSoutput gnd sky130_fd_pr__nfet_01v8 ad=1.155 pd=7.33 as=1.155 ps=7.33 w=7 l=1
X39 a_n3827_n3924# plus a_n8300_8799# gnd sky130_fd_pr__nfet_01v8 ad=1.155 pd=7.33 as=1.155 ps=7.33 w=7 l=0.5
X40 a_n3827_n3924# minus a_n2982_13878# gnd sky130_fd_pr__nfet_01v8 ad=1.155 pd=7.33 as=1.155 ps=7.33 w=7 l=0.5
X41 output CSoutput vdd gnd sky130_fd_pr__nfet_01v8 ad=0.825 pd=5.33 as=0.825 ps=5.33 w=5 l=1
X42 gnd commonsourceibias CSoutput gnd sky130_fd_pr__nfet_01v8 ad=1.155 pd=7.33 as=1.155 ps=7.33 w=7 l=1
X43 a_n2804_13878# a_n2982_13878# a_n2982_13878# vdd sky130_fd_pr__pfet_01v8 ad=1.485 pd=9.33 as=1.485 ps=9.33 w=9 l=0.5
X44 a_n2982_13878# a_n2982_13878# a_n2804_13878# vdd sky130_fd_pr__pfet_01v8 ad=1.485 pd=9.33 as=1.485 ps=9.33 w=9 l=0.5
X45 CSoutput a_n8300_8799# vdd vdd sky130_fd_pr__pfet_01v8 ad=1.32 pd=8.33 as=1.32 ps=8.33 w=8 l=0.5
X46 gnd commonsourceibias CSoutput gnd sky130_fd_pr__nfet_01v8 ad=1.155 pd=7.33 as=1.155 ps=7.33 w=7 l=1
X47 vdd vdd vdd vdd sky130_fd_pr__pfet_01v8 ad=3.51 pd=18.78 as=285.48 ps=1.62876k w=9 l=0.5
X48 vdd a_n8300_8799# CSoutput vdd sky130_fd_pr__pfet_01v8 ad=3.12 pd=16.78 as=1.32 ps=8.33 w=8 l=0.5
X49 a_n3827_n3924# minus a_n2982_13878# gnd sky130_fd_pr__nfet_01v8 ad=1.155 pd=7.33 as=1.155 ps=7.33 w=7 l=0.5
X50 gnd commonsourceibias commonsourceibias gnd sky130_fd_pr__nfet_01v8 ad=1.155 pd=7.33 as=1.155 ps=7.33 w=7 l=1
X51 outputibias outputibias gnd gnd sky130_fd_pr__nfet_01v8 ad=2.34 pd=12.78 as=2.34 ps=12.78 w=6 l=2
X52 diffpairibias diffpairibias gnd gnd sky130_fd_pr__nfet_01v8 ad=2.73 pd=14.78 as=2.73 ps=14.78 w=7 l=1
X53 a_n2982_13878# a_n2982_13878# a_n2804_13878# vdd sky130_fd_pr__pfet_01v8 ad=1.485 pd=9.33 as=1.485 ps=9.33 w=9 l=0.5
X54 a_n8300_8799# a_n2982_13878# a_n2982_8322# vdd sky130_fd_pr__pfet_01v8 ad=1.485 pd=9.33 as=1.485 ps=9.33 w=9 l=0.5
X55 vdd a_n8300_8799# CSoutput vdd sky130_fd_pr__pfet_01v8 ad=1.32 pd=8.33 as=1.32 ps=8.33 w=8 l=0.5
X56 vdd a_n8300_8799# CSoutput vdd sky130_fd_pr__pfet_01v8 ad=1.32 pd=8.33 as=1.32 ps=8.33 w=8 l=0.5
X57 a_n2982_13878# a_n2982_13878# a_n2804_13878# vdd sky130_fd_pr__pfet_01v8 ad=1.485 pd=9.33 as=1.485 ps=9.33 w=9 l=0.5
X58 CSoutput a_n8300_8799# vdd vdd sky130_fd_pr__pfet_01v8 ad=1.32 pd=8.33 as=1.32 ps=8.33 w=8 l=0.5
X59 gnd gnd plus gnd sky130_fd_pr__nfet_01v8 ad=0.165 pd=1.33 as=0.39 ps=2.78 w=1 l=0.5
X60 a_n2982_13878# minus a_n3827_n3924# gnd sky130_fd_pr__nfet_01v8 ad=1.155 pd=7.33 as=2.73 ps=14.78 w=7 l=0.5
X61 commonsourceibias commonsourceibias gnd gnd sky130_fd_pr__nfet_01v8 ad=1.155 pd=7.33 as=1.155 ps=7.33 w=7 l=1
X62 a_n8300_8799# a_n2982_13878# a_n2982_8322# vdd sky130_fd_pr__pfet_01v8 ad=1.485 pd=9.33 as=1.485 ps=9.33 w=9 l=0.5
X63 gnd commonsourceibias commonsourceibias gnd sky130_fd_pr__nfet_01v8 ad=1.155 pd=7.33 as=1.155 ps=7.33 w=7 l=1
X64 diffpairibias diffpairibias gnd gnd sky130_fd_pr__nfet_01v8 ad=2.73 pd=14.78 as=2.73 ps=14.78 w=7 l=1
X65 gnd gnd gnd gnd sky130_fd_pr__nfet_01v8 ad=2.73 pd=14.78 as=0 ps=0 w=7 l=1
X66 CSoutput a_n8300_8799# vdd vdd sky130_fd_pr__pfet_01v8 ad=1.32 pd=8.33 as=1.32 ps=8.33 w=8 l=0.5
X67 a_n8300_8799# a_n2982_13878# a_n2982_8322# vdd sky130_fd_pr__pfet_01v8 ad=1.485 pd=9.33 as=1.485 ps=9.33 w=9 l=0.5
X68 CSoutput a_n2982_8322# sky130_fd_pr__cap_mim_m3_1 l=12 w=12
X69 CSoutput commonsourceibias gnd gnd sky130_fd_pr__nfet_01v8 ad=1.155 pd=7.33 as=1.155 ps=7.33 w=7 l=1
X70 a_n2982_8322# a_n2982_13878# a_n8300_8799# vdd sky130_fd_pr__pfet_01v8 ad=1.485 pd=9.33 as=1.485 ps=9.33 w=9 l=0.5
X71 vdd vdd vdd vdd sky130_fd_pr__pfet_01v8 ad=3.12 pd=16.78 as=0 ps=0 w=8 l=0.5
X72 CSoutput a_n8300_8799# vdd vdd sky130_fd_pr__pfet_01v8 ad=1.32 pd=8.33 as=1.32 ps=8.33 w=8 l=0.5
X73 plus gnd gnd gnd sky130_fd_pr__nfet_01v8 ad=0.165 pd=1.33 as=0.165 ps=1.33 w=1 l=0.5
X74 gnd commonsourceibias commonsourceibias gnd sky130_fd_pr__nfet_01v8 ad=1.155 pd=7.33 as=1.155 ps=7.33 w=7 l=1
X75 vdd CSoutput output gnd sky130_fd_pr__nfet_01v8 ad=0.825 pd=5.33 as=0.825 ps=5.33 w=5 l=1
X76 CSoutput commonsourceibias gnd gnd sky130_fd_pr__nfet_01v8 ad=1.155 pd=7.33 as=1.155 ps=7.33 w=7 l=1
X77 a_n8300_8799# plus a_n3827_n3924# gnd sky130_fd_pr__nfet_01v8 ad=1.155 pd=7.33 as=1.155 ps=7.33 w=7 l=0.5
X78 CSoutput a_n2982_8322# sky130_fd_pr__cap_mim_m3_1 l=12 w=12
X79 vdd a_n8300_8799# CSoutput vdd sky130_fd_pr__pfet_01v8 ad=1.32 pd=8.33 as=1.32 ps=8.33 w=8 l=0.5
X80 CSoutput commonsourceibias gnd gnd sky130_fd_pr__nfet_01v8 ad=1.155 pd=7.33 as=1.155 ps=7.33 w=7 l=1
X81 a_n3827_n3924# diffpairibias gnd gnd sky130_fd_pr__nfet_01v8 ad=2.73 pd=14.78 as=2.73 ps=14.78 w=7 l=1
X82 vdd a_n8300_8799# CSoutput vdd sky130_fd_pr__pfet_01v8 ad=1.32 pd=8.33 as=1.32 ps=8.33 w=8 l=0.5
X83 vdd a_n8300_8799# CSoutput vdd sky130_fd_pr__pfet_01v8 ad=1.32 pd=8.33 as=1.32 ps=8.33 w=8 l=0.5
X84 a_n8300_8799# a_n2982_13878# a_n2982_8322# vdd sky130_fd_pr__pfet_01v8 ad=1.485 pd=9.33 as=1.485 ps=9.33 w=9 l=0.5
X85 a_n2982_13878# a_n2982_13878# a_n2804_13878# vdd sky130_fd_pr__pfet_01v8 ad=1.485 pd=9.33 as=1.485 ps=9.33 w=9 l=0.5
X86 a_n3827_n3924# minus a_n2982_13878# gnd sky130_fd_pr__nfet_01v8 ad=1.155 pd=7.33 as=1.155 ps=7.33 w=7 l=0.5
X87 a_n2982_13878# a_n2982_13878# a_n2804_13878# vdd sky130_fd_pr__pfet_01v8 ad=3.51 pd=18.78 as=1.485 ps=9.33 w=9 l=0.5
X88 a_n3827_n3924# plus a_n8300_8799# gnd sky130_fd_pr__nfet_01v8 ad=1.155 pd=7.33 as=1.155 ps=7.33 w=7 l=0.5
X89 a_n2982_13878# minus a_n3827_n3924# gnd sky130_fd_pr__nfet_01v8 ad=1.155 pd=7.33 as=1.155 ps=7.33 w=7 l=0.5
X90 gnd commonsourceibias commonsourceibias gnd sky130_fd_pr__nfet_01v8 ad=2.73 pd=14.78 as=1.155 ps=7.33 w=7 l=1
X91 gnd commonsourceibias commonsourceibias gnd sky130_fd_pr__nfet_01v8 ad=1.155 pd=7.33 as=1.155 ps=7.33 w=7 l=1
X92 a_n3827_n3924# minus a_n2982_13878# gnd sky130_fd_pr__nfet_01v8 ad=2.73 pd=14.78 as=1.155 ps=7.33 w=7 l=0.5
X93 diffpairibias diffpairibias gnd gnd sky130_fd_pr__nfet_01v8 ad=2.73 pd=14.78 as=2.73 ps=14.78 w=7 l=1
X94 output CSoutput vdd gnd sky130_fd_pr__nfet_01v8 ad=0.825 pd=5.33 as=0.825 ps=5.33 w=5 l=1
X95 CSoutput a_n8300_8799# vdd vdd sky130_fd_pr__pfet_01v8 ad=1.32 pd=8.33 as=1.32 ps=8.33 w=8 l=0.5
X96 vdd vdd vdd vdd sky130_fd_pr__pfet_01v8 ad=3.51 pd=18.78 as=0 ps=0 w=9 l=0.5
X97 vdd vdd vdd vdd sky130_fd_pr__pfet_01v8 ad=3.51 pd=18.78 as=0 ps=0 w=9 l=0.5
X98 gnd commonsourceibias CSoutput gnd sky130_fd_pr__nfet_01v8 ad=1.155 pd=7.33 as=1.155 ps=7.33 w=7 l=1
X99 gnd commonsourceibias CSoutput gnd sky130_fd_pr__nfet_01v8 ad=1.155 pd=7.33 as=1.155 ps=7.33 w=7 l=1
X100 a_n2804_13878# a_n2982_13878# a_n2982_13878# vdd sky130_fd_pr__pfet_01v8 ad=1.485 pd=9.33 as=3.51 ps=18.78 w=9 l=0.5
X101 vdd a_n8300_8799# CSoutput vdd sky130_fd_pr__pfet_01v8 ad=1.32 pd=8.33 as=1.32 ps=8.33 w=8 l=0.5
X102 CSoutput a_n8300_8799# vdd vdd sky130_fd_pr__pfet_01v8 ad=1.32 pd=8.33 as=1.32 ps=8.33 w=8 l=0.5
X103 output CSoutput vdd gnd sky130_fd_pr__nfet_01v8 ad=1.95 pd=10.78 as=0.825 ps=5.33 w=5 l=1
X104 a_n2982_8322# a_n2982_13878# vdd vdd sky130_fd_pr__pfet_01v8 ad=1.485 pd=9.33 as=1.485 ps=9.33 w=9 l=0.5
X105 vdd a_n2982_13878# a_n2982_8322# vdd sky130_fd_pr__pfet_01v8 ad=1.485 pd=9.33 as=1.485 ps=9.33 w=9 l=0.5
X106 vdd vdd vdd vdd sky130_fd_pr__pfet_01v8 ad=3.12 pd=16.78 as=0 ps=0 w=8 l=0.5
X107 a_n2982_13878# a_n2982_13878# a_n2804_13878# vdd sky130_fd_pr__pfet_01v8 ad=1.485 pd=9.33 as=1.485 ps=9.33 w=9 l=0.5
X108 gnd commonsourceibias CSoutput gnd sky130_fd_pr__nfet_01v8 ad=2.73 pd=14.78 as=1.155 ps=7.33 w=7 l=1
X109 gnd gnd gnd gnd sky130_fd_pr__nfet_01v8 ad=2.73 pd=14.78 as=0 ps=0 w=7 l=1
X110 vdd CSoutput output gnd sky130_fd_pr__nfet_01v8 ad=0.825 pd=5.33 as=0.825 ps=5.33 w=5 l=1
X111 CSoutput a_n8300_8799# vdd vdd sky130_fd_pr__pfet_01v8 ad=1.32 pd=8.33 as=1.32 ps=8.33 w=8 l=0.5
X112 a_n2982_13878# minus a_n3827_n3924# gnd sky130_fd_pr__nfet_01v8 ad=1.155 pd=7.33 as=1.155 ps=7.33 w=7 l=0.5
X113 a_n3827_n3924# diffpairibias gnd gnd sky130_fd_pr__nfet_01v8 ad=2.73 pd=14.78 as=2.73 ps=14.78 w=7 l=1
X114 vdd a_n2982_13878# a_n2804_13878# vdd sky130_fd_pr__pfet_01v8 ad=1.485 pd=9.33 as=1.485 ps=9.33 w=9 l=0.5
X115 gnd gnd minus gnd sky130_fd_pr__nfet_01v8 ad=0.165 pd=1.33 as=0.39 ps=2.78 w=1 l=0.5
X116 a_n3827_n3924# plus a_n8300_8799# gnd sky130_fd_pr__nfet_01v8 ad=1.155 pd=7.33 as=1.155 ps=7.33 w=7 l=0.5
X117 vdd vdd vdd vdd sky130_fd_pr__pfet_01v8 ad=3.51 pd=18.78 as=0 ps=0 w=9 l=0.5
X118 vdd a_n8300_8799# CSoutput vdd sky130_fd_pr__pfet_01v8 ad=1.32 pd=8.33 as=1.32 ps=8.33 w=8 l=0.5
X119 vdd a_n8300_8799# CSoutput vdd sky130_fd_pr__pfet_01v8 ad=1.32 pd=8.33 as=1.32 ps=8.33 w=8 l=0.5
X120 a_n2982_8322# a_n2982_13878# a_n8300_8799# vdd sky130_fd_pr__pfet_01v8 ad=1.485 pd=9.33 as=1.485 ps=9.33 w=9 l=0.5
X121 a_n2804_13878# a_n2982_13878# a_n2982_13878# vdd sky130_fd_pr__pfet_01v8 ad=1.485 pd=9.33 as=1.485 ps=9.33 w=9 l=0.5
X122 gnd gnd gnd gnd sky130_fd_pr__nfet_01v8 ad=2.73 pd=14.78 as=0 ps=0 w=7 l=1
X123 vdd vdd vdd vdd sky130_fd_pr__pfet_01v8 ad=3.12 pd=16.78 as=0 ps=0 w=8 l=0.5
X124 a_n8300_8799# a_n2982_13878# a_n2982_8322# vdd sky130_fd_pr__pfet_01v8 ad=1.485 pd=9.33 as=1.485 ps=9.33 w=9 l=0.5
X125 a_n2982_8322# a_n2982_13878# vdd vdd sky130_fd_pr__pfet_01v8 ad=3.51 pd=18.78 as=1.485 ps=9.33 w=9 l=0.5
X126 vdd vdd vdd vdd sky130_fd_pr__pfet_01v8 ad=3.51 pd=18.78 as=0 ps=0 w=9 l=0.5
X127 a_n2982_13878# minus a_n3827_n3924# gnd sky130_fd_pr__nfet_01v8 ad=1.155 pd=7.33 as=1.155 ps=7.33 w=7 l=0.5
X128 a_n8300_8799# plus a_n3827_n3924# gnd sky130_fd_pr__nfet_01v8 ad=1.155 pd=7.33 as=2.73 ps=14.78 w=7 l=0.5
X129 vdd a_n8300_8799# CSoutput vdd sky130_fd_pr__pfet_01v8 ad=1.32 pd=8.33 as=1.32 ps=8.33 w=8 l=0.5
X130 a_n2982_13878# a_n2982_13878# a_n2804_13878# vdd sky130_fd_pr__pfet_01v8 ad=1.485 pd=9.33 as=1.485 ps=9.33 w=9 l=0.5
X131 CSoutput a_n8300_8799# vdd vdd sky130_fd_pr__pfet_01v8 ad=1.32 pd=8.33 as=1.32 ps=8.33 w=8 l=0.5
X132 vdd CSoutput output gnd sky130_fd_pr__nfet_01v8 ad=0.825 pd=5.33 as=1.95 ps=10.78 w=5 l=1
X133 diffpairibias diffpairibias gnd gnd sky130_fd_pr__nfet_01v8 ad=2.73 pd=14.78 as=2.73 ps=14.78 w=7 l=1
X134 a_n8300_8799# a_n2982_13878# a_n2982_8322# vdd sky130_fd_pr__pfet_01v8 ad=1.485 pd=9.33 as=1.485 ps=9.33 w=9 l=0.5
X135 a_n2804_13878# a_n2982_13878# a_n2982_13878# vdd sky130_fd_pr__pfet_01v8 ad=1.485 pd=9.33 as=1.485 ps=9.33 w=9 l=0.5
X136 CSoutput commonsourceibias gnd gnd sky130_fd_pr__nfet_01v8 ad=1.155 pd=7.33 as=1.155 ps=7.33 w=7 l=1
X137 commonsourceibias commonsourceibias gnd gnd sky130_fd_pr__nfet_01v8 ad=1.155 pd=7.33 as=1.155 ps=7.33 w=7 l=1
X138 vdd CSoutput output gnd sky130_fd_pr__nfet_01v8 ad=0.825 pd=5.33 as=0.825 ps=5.33 w=5 l=1
X139 CSoutput commonsourceibias gnd gnd sky130_fd_pr__nfet_01v8 ad=1.155 pd=7.33 as=2.73 ps=14.78 w=7 l=1
X140 a_n3827_n3924# minus a_n2982_13878# gnd sky130_fd_pr__nfet_01v8 ad=2.73 pd=14.78 as=1.155 ps=7.33 w=7 l=0.5
X141 a_n3827_n3924# minus a_n2982_13878# gnd sky130_fd_pr__nfet_01v8 ad=1.155 pd=7.33 as=1.155 ps=7.33 w=7 l=0.5
X142 a_n8300_8799# plus a_n3827_n3924# gnd sky130_fd_pr__nfet_01v8 ad=1.155 pd=7.33 as=1.155 ps=7.33 w=7 l=0.5
X143 a_n2804_13878# a_n2982_13878# a_n2982_13878# vdd sky130_fd_pr__pfet_01v8 ad=1.485 pd=9.33 as=1.485 ps=9.33 w=9 l=0.5
X144 vdd vdd vdd vdd sky130_fd_pr__pfet_01v8 ad=3.51 pd=18.78 as=0 ps=0 w=9 l=0.5
X145 CSoutput a_n8300_8799# vdd vdd sky130_fd_pr__pfet_01v8 ad=1.32 pd=8.33 as=1.32 ps=8.33 w=8 l=0.5
X146 vdd a_n2982_13878# a_n2982_8322# vdd sky130_fd_pr__pfet_01v8 ad=1.485 pd=9.33 as=3.51 ps=18.78 w=9 l=0.5
X147 gnd commonsourceibias CSoutput gnd sky130_fd_pr__nfet_01v8 ad=1.155 pd=7.33 as=1.155 ps=7.33 w=7 l=1
X148 a_n2982_13878# minus a_n3827_n3924# gnd sky130_fd_pr__nfet_01v8 ad=1.155 pd=7.33 as=1.155 ps=7.33 w=7 l=0.5
X149 gnd commonsourceibias commonsourceibias gnd sky130_fd_pr__nfet_01v8 ad=1.155 pd=7.33 as=1.155 ps=7.33 w=7 l=1
X150 a_n2982_13878# a_n2982_13878# a_n2804_13878# vdd sky130_fd_pr__pfet_01v8 ad=1.485 pd=9.33 as=1.485 ps=9.33 w=9 l=0.5
X151 vdd a_n8300_8799# CSoutput vdd sky130_fd_pr__pfet_01v8 ad=1.32 pd=8.33 as=1.32 ps=8.33 w=8 l=0.5
X152 commonsourceibias commonsourceibias gnd gnd sky130_fd_pr__nfet_01v8 ad=1.155 pd=7.33 as=1.155 ps=7.33 w=7 l=1
X153 vdd a_n8300_8799# CSoutput vdd sky130_fd_pr__pfet_01v8 ad=1.32 pd=8.33 as=1.32 ps=8.33 w=8 l=0.5
X154 gnd commonsourceibias commonsourceibias gnd sky130_fd_pr__nfet_01v8 ad=1.155 pd=7.33 as=1.155 ps=7.33 w=7 l=1
X155 a_n3827_n3924# diffpairibias gnd gnd sky130_fd_pr__nfet_01v8 ad=2.73 pd=14.78 as=2.73 ps=14.78 w=7 l=1
X156 commonsourceibias commonsourceibias gnd gnd sky130_fd_pr__nfet_01v8 ad=1.155 pd=7.33 as=1.155 ps=7.33 w=7 l=1
X157 a_n2982_13878# minus a_n3827_n3924# gnd sky130_fd_pr__nfet_01v8 ad=1.155 pd=7.33 as=1.155 ps=7.33 w=7 l=0.5
X158 gnd commonsourceibias CSoutput gnd sky130_fd_pr__nfet_01v8 ad=1.155 pd=7.33 as=1.155 ps=7.33 w=7 l=1
X159 a_n3827_n3924# diffpairibias gnd gnd sky130_fd_pr__nfet_01v8 ad=2.73 pd=14.78 as=2.73 ps=14.78 w=7 l=1
X160 vdd a_n8300_8799# CSoutput vdd sky130_fd_pr__pfet_01v8 ad=1.32 pd=8.33 as=1.32 ps=8.33 w=8 l=0.5
X161 gnd commonsourceibias CSoutput gnd sky130_fd_pr__nfet_01v8 ad=1.155 pd=7.33 as=1.155 ps=7.33 w=7 l=1
X162 vdd vdd vdd vdd sky130_fd_pr__pfet_01v8 ad=3.12 pd=16.78 as=0 ps=0 w=8 l=0.5
X163 gnd gnd minus gnd sky130_fd_pr__nfet_01v8 ad=0.165 pd=1.33 as=0.165 ps=1.33 w=1 l=0.5
X164 a_n2804_13878# a_n2982_13878# a_n2982_13878# vdd sky130_fd_pr__pfet_01v8 ad=1.485 pd=9.33 as=1.485 ps=9.33 w=9 l=0.5
X165 gnd commonsourceibias CSoutput gnd sky130_fd_pr__nfet_01v8 ad=2.73 pd=14.78 as=1.155 ps=7.33 w=7 l=1
X166 a_n2982_8322# a_n2982_13878# a_n8300_8799# vdd sky130_fd_pr__pfet_01v8 ad=1.485 pd=9.33 as=1.485 ps=9.33 w=9 l=0.5
X167 CSoutput a_n8300_8799# vdd vdd sky130_fd_pr__pfet_01v8 ad=1.32 pd=8.33 as=1.32 ps=8.33 w=8 l=0.5
X168 commonsourceibias commonsourceibias gnd gnd sky130_fd_pr__nfet_01v8 ad=1.155 pd=7.33 as=1.155 ps=7.33 w=7 l=1
X169 gnd commonsourceibias CSoutput gnd sky130_fd_pr__nfet_01v8 ad=1.155 pd=7.33 as=1.155 ps=7.33 w=7 l=1
X170 a_n2982_13878# minus a_n3827_n3924# gnd sky130_fd_pr__nfet_01v8 ad=1.155 pd=7.33 as=1.155 ps=7.33 w=7 l=0.5
X171 gnd gnd gnd gnd sky130_fd_pr__nfet_01v8 ad=1.95 pd=10.78 as=0 ps=0 w=5 l=1
X172 a_n2804_13878# a_n2982_13878# vdd vdd sky130_fd_pr__pfet_01v8 ad=1.485 pd=9.33 as=1.485 ps=9.33 w=9 l=0.5
X173 CSoutput commonsourceibias gnd gnd sky130_fd_pr__nfet_01v8 ad=1.155 pd=7.33 as=1.155 ps=7.33 w=7 l=1
X174 diffpairibias diffpairibias gnd gnd sky130_fd_pr__nfet_01v8 ad=2.73 pd=14.78 as=2.73 ps=14.78 w=7 l=1
X175 vdd a_n2982_13878# a_n2804_13878# vdd sky130_fd_pr__pfet_01v8 ad=1.485 pd=9.33 as=1.485 ps=9.33 w=9 l=0.5
X176 vdd a_n8300_8799# CSoutput vdd sky130_fd_pr__pfet_01v8 ad=1.32 pd=8.33 as=1.32 ps=8.33 w=8 l=0.5
X177 CSoutput a_n8300_8799# vdd vdd sky130_fd_pr__pfet_01v8 ad=1.32 pd=8.33 as=1.32 ps=8.33 w=8 l=0.5
X178 a_n3827_n3924# plus a_n8300_8799# gnd sky130_fd_pr__nfet_01v8 ad=1.155 pd=7.33 as=1.155 ps=7.33 w=7 l=0.5
X179 gnd commonsourceibias commonsourceibias gnd sky130_fd_pr__nfet_01v8 ad=1.155 pd=7.33 as=1.155 ps=7.33 w=7 l=1
X180 CSoutput a_n8300_8799# vdd vdd sky130_fd_pr__pfet_01v8 ad=1.32 pd=8.33 as=1.32 ps=8.33 w=8 l=0.5
X181 vdd a_n8300_8799# CSoutput vdd sky130_fd_pr__pfet_01v8 ad=1.32 pd=8.33 as=1.32 ps=8.33 w=8 l=0.5
X182 commonsourceibias commonsourceibias gnd gnd sky130_fd_pr__nfet_01v8 ad=1.155 pd=7.33 as=2.73 ps=14.78 w=7 l=1
X183 a_n2804_13878# a_n2982_13878# a_n2982_13878# vdd sky130_fd_pr__pfet_01v8 ad=1.485 pd=9.33 as=1.485 ps=9.33 w=9 l=0.5
X184 a_n3827_n3924# minus a_n2982_13878# gnd sky130_fd_pr__nfet_01v8 ad=1.155 pd=7.33 as=1.155 ps=7.33 w=7 l=0.5
X185 a_n3827_n3924# plus a_n8300_8799# gnd sky130_fd_pr__nfet_01v8 ad=1.155 pd=7.33 as=1.155 ps=7.33 w=7 l=0.5
X186 output outputibias gnd gnd sky130_fd_pr__nfet_01v8 ad=2.34 pd=12.78 as=2.34 ps=12.78 w=6 l=2
X187 diffpairibias diffpairibias gnd gnd sky130_fd_pr__nfet_01v8 ad=2.73 pd=14.78 as=2.73 ps=14.78 w=7 l=1
X188 a_n8300_8799# plus a_n3827_n3924# gnd sky130_fd_pr__nfet_01v8 ad=1.155 pd=7.33 as=1.155 ps=7.33 w=7 l=0.5
X189 a_n3827_n3924# minus a_n2982_13878# gnd sky130_fd_pr__nfet_01v8 ad=1.155 pd=7.33 as=1.155 ps=7.33 w=7 l=0.5
X190 CSoutput a_n2982_8322# sky130_fd_pr__cap_mim_m3_1 l=12 w=12
X191 vdd a_n8300_8799# CSoutput vdd sky130_fd_pr__pfet_01v8 ad=1.32 pd=8.33 as=1.32 ps=8.33 w=8 l=0.5
X192 a_n2982_8322# a_n2982_13878# a_n8300_8799# vdd sky130_fd_pr__pfet_01v8 ad=1.485 pd=9.33 as=1.485 ps=9.33 w=9 l=0.5
X193 CSoutput commonsourceibias gnd gnd sky130_fd_pr__nfet_01v8 ad=1.155 pd=7.33 as=2.73 ps=14.78 w=7 l=1
X194 output outputibias gnd gnd sky130_fd_pr__nfet_01v8 ad=2.34 pd=12.78 as=2.34 ps=12.78 w=6 l=2
X195 output outputibias gnd gnd sky130_fd_pr__nfet_01v8 ad=2.34 pd=12.78 as=2.34 ps=12.78 w=6 l=2
X196 gnd commonsourceibias commonsourceibias gnd sky130_fd_pr__nfet_01v8 ad=1.155 pd=7.33 as=1.155 ps=7.33 w=7 l=1
X197 a_n2982_13878# a_n2982_13878# a_n2804_13878# vdd sky130_fd_pr__pfet_01v8 ad=1.485 pd=9.33 as=1.485 ps=9.33 w=9 l=0.5
X198 a_n2804_13878# a_n2982_13878# a_n2982_13878# vdd sky130_fd_pr__pfet_01v8 ad=1.485 pd=9.33 as=1.485 ps=9.33 w=9 l=0.5
X199 vdd a_n8300_8799# CSoutput vdd sky130_fd_pr__pfet_01v8 ad=3.12 pd=16.78 as=1.32 ps=8.33 w=8 l=0.5
X200 CSoutput a_n8300_8799# vdd vdd sky130_fd_pr__pfet_01v8 ad=1.32 pd=8.33 as=3.12 ps=16.78 w=8 l=0.5
X201 diffpairibias diffpairibias gnd gnd sky130_fd_pr__nfet_01v8 ad=2.73 pd=14.78 as=2.73 ps=14.78 w=7 l=1
X202 vdd vdd vdd vdd sky130_fd_pr__pfet_01v8 ad=3.12 pd=16.78 as=0 ps=0 w=8 l=0.5
X203 vdd a_n8300_8799# CSoutput vdd sky130_fd_pr__pfet_01v8 ad=1.32 pd=8.33 as=1.32 ps=8.33 w=8 l=0.5
X204 vdd a_n2982_13878# a_n2982_8322# vdd sky130_fd_pr__pfet_01v8 ad=1.485 pd=9.33 as=3.51 ps=18.78 w=9 l=0.5
X205 CSoutput commonsourceibias gnd gnd sky130_fd_pr__nfet_01v8 ad=1.155 pd=7.33 as=2.73 ps=14.78 w=7 l=1
X206 CSoutput a_n2982_8322# sky130_fd_pr__cap_mim_m3_1 l=12 w=12
X207 output outputibias gnd gnd sky130_fd_pr__nfet_01v8 ad=2.34 pd=12.78 as=2.34 ps=12.78 w=6 l=2
X208 CSoutput a_n8300_8799# vdd vdd sky130_fd_pr__pfet_01v8 ad=1.32 pd=8.33 as=1.32 ps=8.33 w=8 l=0.5
X209 gnd commonsourceibias CSoutput gnd sky130_fd_pr__nfet_01v8 ad=1.155 pd=7.33 as=1.155 ps=7.33 w=7 l=1
X210 a_n2804_13878# a_n2982_13878# vdd vdd sky130_fd_pr__pfet_01v8 ad=3.51 pd=18.78 as=1.485 ps=9.33 w=9 l=0.5
X211 vdd vdd vdd vdd sky130_fd_pr__pfet_01v8 ad=3.12 pd=16.78 as=0 ps=0 w=8 l=0.5
X212 vdd vdd vdd vdd sky130_fd_pr__pfet_01v8 ad=3.12 pd=16.78 as=0 ps=0 w=8 l=0.5
X213 CSoutput commonsourceibias gnd gnd sky130_fd_pr__nfet_01v8 ad=1.155 pd=7.33 as=1.155 ps=7.33 w=7 l=1
X214 gnd gnd gnd gnd sky130_fd_pr__nfet_01v8 ad=2.73 pd=14.78 as=0 ps=0 w=7 l=1
X215 plus gnd gnd gnd sky130_fd_pr__nfet_01v8 ad=0.165 pd=1.33 as=0.165 ps=1.33 w=1 l=0.5
X216 CSoutput a_n8300_8799# vdd vdd sky130_fd_pr__pfet_01v8 ad=1.32 pd=8.33 as=1.32 ps=8.33 w=8 l=0.5
X217 gnd gnd minus gnd sky130_fd_pr__nfet_01v8 ad=0.39 pd=2.78 as=0.165 ps=1.33 w=1 l=0.5
X218 gnd gnd gnd gnd sky130_fd_pr__nfet_01v8 ad=2.73 pd=14.78 as=0 ps=0 w=7 l=0.5
X219 vdd a_n8300_8799# CSoutput vdd sky130_fd_pr__pfet_01v8 ad=3.12 pd=16.78 as=1.32 ps=8.33 w=8 l=0.5
X220 vdd vdd vdd vdd sky130_fd_pr__pfet_01v8 ad=3.12 pd=16.78 as=0 ps=0 w=8 l=0.5
X221 gnd gnd gnd gnd sky130_fd_pr__nfet_01v8 ad=2.73 pd=14.78 as=0 ps=0 w=7 l=1
X222 gnd gnd gnd gnd sky130_fd_pr__nfet_01v8 ad=2.73 pd=14.78 as=0 ps=0 w=7 l=0.5
X223 a_n2982_8322# a_n2982_13878# a_n8300_8799# vdd sky130_fd_pr__pfet_01v8 ad=1.485 pd=9.33 as=1.485 ps=9.33 w=9 l=0.5
X224 vdd a_n2982_13878# a_n2982_8322# vdd sky130_fd_pr__pfet_01v8 ad=1.485 pd=9.33 as=1.485 ps=9.33 w=9 l=0.5
X225 a_n3827_n3924# diffpairibias gnd gnd sky130_fd_pr__nfet_01v8 ad=2.73 pd=14.78 as=2.73 ps=14.78 w=7 l=1
X226 gnd commonsourceibias CSoutput gnd sky130_fd_pr__nfet_01v8 ad=1.155 pd=7.33 as=1.155 ps=7.33 w=7 l=1
X227 output CSoutput vdd gnd sky130_fd_pr__nfet_01v8 ad=0.825 pd=5.33 as=0.825 ps=5.33 w=5 l=1
X228 CSoutput commonsourceibias gnd gnd sky130_fd_pr__nfet_01v8 ad=1.155 pd=7.33 as=1.155 ps=7.33 w=7 l=1
X229 gnd commonsourceibias CSoutput gnd sky130_fd_pr__nfet_01v8 ad=2.73 pd=14.78 as=1.155 ps=7.33 w=7 l=1
X230 vdd vdd vdd vdd sky130_fd_pr__pfet_01v8 ad=3.51 pd=18.78 as=0 ps=0 w=9 l=0.5
X231 vdd a_n8300_8799# CSoutput vdd sky130_fd_pr__pfet_01v8 ad=1.32 pd=8.33 as=1.32 ps=8.33 w=8 l=0.5
X232 a_n3827_n3924# plus a_n8300_8799# gnd sky130_fd_pr__nfet_01v8 ad=1.155 pd=7.33 as=1.155 ps=7.33 w=7 l=0.5
X233 CSoutput a_n8300_8799# vdd vdd sky130_fd_pr__pfet_01v8 ad=1.32 pd=8.33 as=3.12 ps=16.78 w=8 l=0.5
X234 CSoutput a_n8300_8799# vdd vdd sky130_fd_pr__pfet_01v8 ad=1.32 pd=8.33 as=1.32 ps=8.33 w=8 l=0.5
X235 a_n2804_13878# a_n2982_13878# a_n2982_13878# vdd sky130_fd_pr__pfet_01v8 ad=1.485 pd=9.33 as=1.485 ps=9.33 w=9 l=0.5
X236 gnd commonsourceibias CSoutput gnd sky130_fd_pr__nfet_01v8 ad=1.155 pd=7.33 as=1.155 ps=7.33 w=7 l=1
X237 a_n3827_n3924# minus a_n2982_13878# gnd sky130_fd_pr__nfet_01v8 ad=1.155 pd=7.33 as=1.155 ps=7.33 w=7 l=0.5
X238 a_n8300_8799# plus a_n3827_n3924# gnd sky130_fd_pr__nfet_01v8 ad=1.155 pd=7.33 as=1.155 ps=7.33 w=7 l=0.5
X239 vdd vdd vdd vdd sky130_fd_pr__pfet_01v8 ad=3.12 pd=16.78 as=0 ps=0 w=8 l=0.5
X240 a_n2982_8322# a_n2982_13878# a_n8300_8799# vdd sky130_fd_pr__pfet_01v8 ad=1.485 pd=9.33 as=1.485 ps=9.33 w=9 l=0.5
X241 CSoutput commonsourceibias gnd gnd sky130_fd_pr__nfet_01v8 ad=1.155 pd=7.33 as=1.155 ps=7.33 w=7 l=1
X242 diffpairibias diffpairibias gnd gnd sky130_fd_pr__nfet_01v8 ad=2.73 pd=14.78 as=2.73 ps=14.78 w=7 l=1
X243 gnd commonsourceibias CSoutput gnd sky130_fd_pr__nfet_01v8 ad=1.155 pd=7.33 as=1.155 ps=7.33 w=7 l=1
X244 a_n8300_8799# plus a_n3827_n3924# gnd sky130_fd_pr__nfet_01v8 ad=1.155 pd=7.33 as=1.155 ps=7.33 w=7 l=0.5
X245 a_n3827_n3924# minus a_n2982_13878# gnd sky130_fd_pr__nfet_01v8 ad=1.155 pd=7.33 as=1.155 ps=7.33 w=7 l=0.5
X246 commonsourceibias commonsourceibias gnd gnd sky130_fd_pr__nfet_01v8 ad=1.155 pd=7.33 as=1.155 ps=7.33 w=7 l=1
X247 CSoutput a_n8300_8799# vdd vdd sky130_fd_pr__pfet_01v8 ad=1.32 pd=8.33 as=1.32 ps=8.33 w=8 l=0.5
X248 CSoutput commonsourceibias gnd gnd sky130_fd_pr__nfet_01v8 ad=1.155 pd=7.33 as=1.155 ps=7.33 w=7 l=1
X249 CSoutput a_n8300_8799# vdd vdd sky130_fd_pr__pfet_01v8 ad=1.32 pd=8.33 as=1.32 ps=8.33 w=8 l=0.5
X250 vdd vdd vdd vdd sky130_fd_pr__pfet_01v8 ad=3.12 pd=16.78 as=0 ps=0 w=8 l=0.5
X251 a_n3827_n3924# diffpairibias gnd gnd sky130_fd_pr__nfet_01v8 ad=2.73 pd=14.78 as=2.73 ps=14.78 w=7 l=1
X252 CSoutput a_n8300_8799# vdd vdd sky130_fd_pr__pfet_01v8 ad=1.32 pd=8.33 as=1.32 ps=8.33 w=8 l=0.5
X253 a_n2982_8322# a_n2982_13878# vdd vdd sky130_fd_pr__pfet_01v8 ad=3.51 pd=18.78 as=1.485 ps=9.33 w=9 l=0.5
X254 vdd a_n8300_8799# CSoutput vdd sky130_fd_pr__pfet_01v8 ad=3.12 pd=16.78 as=1.32 ps=8.33 w=8 l=0.5
X255 a_n3827_n3924# plus a_n8300_8799# gnd sky130_fd_pr__nfet_01v8 ad=1.155 pd=7.33 as=1.155 ps=7.33 w=7 l=0.5
X256 CSoutput commonsourceibias gnd gnd sky130_fd_pr__nfet_01v8 ad=1.155 pd=7.33 as=2.73 ps=14.78 w=7 l=1
X257 vdd a_n2982_13878# a_n2804_13878# vdd sky130_fd_pr__pfet_01v8 ad=1.485 pd=9.33 as=3.51 ps=18.78 w=9 l=0.5
X258 CSoutput a_n8300_8799# vdd vdd sky130_fd_pr__pfet_01v8 ad=1.32 pd=8.33 as=3.12 ps=16.78 w=8 l=0.5
X259 gnd commonsourceibias commonsourceibias gnd sky130_fd_pr__nfet_01v8 ad=1.155 pd=7.33 as=1.155 ps=7.33 w=7 l=1
X260 CSoutput a_n8300_8799# vdd vdd sky130_fd_pr__pfet_01v8 ad=1.32 pd=8.33 as=1.32 ps=8.33 w=8 l=0.5
X261 vdd a_n8300_8799# CSoutput vdd sky130_fd_pr__pfet_01v8 ad=3.12 pd=16.78 as=1.32 ps=8.33 w=8 l=0.5
X262 gnd commonsourceibias CSoutput gnd sky130_fd_pr__nfet_01v8 ad=1.155 pd=7.33 as=1.155 ps=7.33 w=7 l=1
X263 CSoutput commonsourceibias gnd gnd sky130_fd_pr__nfet_01v8 ad=1.155 pd=7.33 as=1.155 ps=7.33 w=7 l=1
X264 output CSoutput vdd gnd sky130_fd_pr__nfet_01v8 ad=0.825 pd=5.33 as=0.825 ps=5.33 w=5 l=1
X265 a_n8300_8799# plus a_n3827_n3924# gnd sky130_fd_pr__nfet_01v8 ad=1.155 pd=7.33 as=2.73 ps=14.78 w=7 l=0.5
X266 a_n3827_n3924# minus a_n2982_13878# gnd sky130_fd_pr__nfet_01v8 ad=1.155 pd=7.33 as=1.155 ps=7.33 w=7 l=0.5
X267 a_n8300_8799# a_n2982_13878# a_n2982_8322# vdd sky130_fd_pr__pfet_01v8 ad=1.485 pd=9.33 as=1.485 ps=9.33 w=9 l=0.5
X268 a_n2982_8322# a_n2982_13878# a_n8300_8799# vdd sky130_fd_pr__pfet_01v8 ad=1.485 pd=9.33 as=1.485 ps=9.33 w=9 l=0.5
X269 CSoutput commonsourceibias gnd gnd sky130_fd_pr__nfet_01v8 ad=1.155 pd=7.33 as=1.155 ps=7.33 w=7 l=1
X270 commonsourceibias commonsourceibias gnd gnd sky130_fd_pr__nfet_01v8 ad=1.155 pd=7.33 as=2.73 ps=14.78 w=7 l=1
X271 a_n2804_13878# a_n2982_13878# vdd vdd sky130_fd_pr__pfet_01v8 ad=3.51 pd=18.78 as=1.485 ps=9.33 w=9 l=0.5
X272 gnd gnd gnd gnd sky130_fd_pr__nfet_01v8 ad=2.73 pd=14.78 as=0 ps=0 w=7 l=1
X273 gnd commonsourceibias commonsourceibias gnd sky130_fd_pr__nfet_01v8 ad=1.155 pd=7.33 as=1.155 ps=7.33 w=7 l=1
X274 vdd a_n8300_8799# CSoutput vdd sky130_fd_pr__pfet_01v8 ad=1.32 pd=8.33 as=1.32 ps=8.33 w=8 l=0.5
X275 vdd vdd vdd vdd sky130_fd_pr__pfet_01v8 ad=3.51 pd=18.78 as=0 ps=0 w=9 l=0.5
X276 CSoutput a_n8300_8799# vdd vdd sky130_fd_pr__pfet_01v8 ad=1.32 pd=8.33 as=3.12 ps=16.78 w=8 l=0.5
X277 a_n2982_13878# a_n2982_13878# a_n2804_13878# vdd sky130_fd_pr__pfet_01v8 ad=3.51 pd=18.78 as=1.485 ps=9.33 w=9 l=0.5
X278 a_n8300_8799# a_n2982_13878# a_n2982_8322# vdd sky130_fd_pr__pfet_01v8 ad=1.485 pd=9.33 as=3.51 ps=18.78 w=9 l=0.5
X279 gnd gnd gnd gnd sky130_fd_pr__nfet_01v8 ad=2.73 pd=14.78 as=0 ps=0 w=7 l=1
X280 a_n8300_8799# plus a_n3827_n3924# gnd sky130_fd_pr__nfet_01v8 ad=1.155 pd=7.33 as=1.155 ps=7.33 w=7 l=0.5
X281 a_n2982_8322# a_n2982_13878# a_n8300_8799# vdd sky130_fd_pr__pfet_01v8 ad=1.485 pd=9.33 as=1.485 ps=9.33 w=9 l=0.5
X282 a_n8300_8799# a_n2982_13878# a_n2982_8322# vdd sky130_fd_pr__pfet_01v8 ad=1.485 pd=9.33 as=1.485 ps=9.33 w=9 l=0.5
X283 commonsourceibias commonsourceibias gnd gnd sky130_fd_pr__nfet_01v8 ad=1.155 pd=7.33 as=1.155 ps=7.33 w=7 l=1
X284 CSoutput a_n8300_8799# vdd vdd sky130_fd_pr__pfet_01v8 ad=1.32 pd=8.33 as=1.32 ps=8.33 w=8 l=0.5