* NGSPICE file created from opamp171.ext - technology: sky130A

.subckt opamp171 gnd CSoutput output vdd plus minus commonsourceibias outputibias
+ diffpairibias
X0 CSoutput.t182 a_n8300_8799.t36 vdd.t264 vdd.t221 sky130_fd_pr__pfet_01v8 ad=1.32 pd=8.33 as=3.12 ps=16.78 w=8 l=0.5
X1 a_n8300_8799.t9 plus.t5 a_n2903_n3924.t28 gnd.t263 sky130_fd_pr__nfet_01v8 ad=1.155 pd=7.33 as=1.155 ps=7.33 w=7 l=0.7
X2 a_n2472_13878.t27 a_n2650_13878.t17 a_n2650_13878.t18 vdd.t115 sky130_fd_pr__pfet_01v8 ad=1.485 pd=9.33 as=1.485 ps=9.33 w=9 l=0.5
X3 CSoutput.t41 commonsourceibias.t80 gnd.t233 gnd.t183 sky130_fd_pr__nfet_01v8 ad=1.155 pd=7.33 as=1.155 ps=7.33 w=7 l=1
X4 a_n2472_13878.t7 a_n2650_13878.t56 vdd.t6 vdd.t5 sky130_fd_pr__pfet_01v8 ad=1.485 pd=9.33 as=1.485 ps=9.33 w=9 l=0.5
X5 vdd.t263 a_n8300_8799.t37 CSoutput.t181 vdd.t217 sky130_fd_pr__pfet_01v8 ad=1.32 pd=8.33 as=1.32 ps=8.33 w=8 l=0.5
X6 gnd.t245 commonsourceibias.t81 CSoutput.t47 gnd.t244 sky130_fd_pr__nfet_01v8 ad=1.155 pd=7.33 as=1.155 ps=7.33 w=7 l=1
X7 CSoutput.t189 commonsourceibias.t82 gnd.t352 gnd.t19 sky130_fd_pr__nfet_01v8 ad=1.155 pd=7.33 as=1.155 ps=7.33 w=7 l=1
X8 CSoutput.t15 commonsourceibias.t83 gnd.t34 gnd.t33 sky130_fd_pr__nfet_01v8 ad=1.155 pd=7.33 as=1.155 ps=7.33 w=7 l=1
X9 CSoutput.t180 a_n8300_8799.t38 vdd.t262 vdd.t154 sky130_fd_pr__pfet_01v8 ad=1.32 pd=8.33 as=3.12 ps=16.78 w=8 l=0.5
X10 CSoutput.t179 a_n8300_8799.t39 vdd.t261 vdd.t141 sky130_fd_pr__pfet_01v8 ad=1.32 pd=8.33 as=1.32 ps=8.33 w=8 l=0.5
X11 a_n2903_n3924.t27 plus.t6 a_n8300_8799.t3 gnd.t256 sky130_fd_pr__nfet_01v8 ad=1.155 pd=7.33 as=1.155 ps=7.33 w=7 l=0.7
X12 gnd.t189 commonsourceibias.t84 CSoutput.t26 gnd.t188 sky130_fd_pr__nfet_01v8 ad=1.155 pd=7.33 as=1.155 ps=7.33 w=7 l=1
X13 CSoutput.t216 a_n2650_8322.t33 sky130_fd_pr__cap_mim_m3_1 l=12 w=12
X14 plus.t2 gnd.t157 gnd.t159 gnd.t158 sky130_fd_pr__nfet_01v8 ad=0.165 pd=1.33 as=0.165 ps=1.33 w=1 l=0.5
X15 a_n2650_8322.t27 a_n2650_13878.t57 a_n8300_8799.t1 vdd.t7 sky130_fd_pr__pfet_01v8 ad=1.485 pd=9.33 as=1.485 ps=9.33 w=9 l=0.5
X16 vdd.t0 CSoutput.t217 output.t18 gnd.t340 sky130_fd_pr__nfet_01v8 ad=0.825 pd=5.33 as=0.825 ps=5.33 w=5 l=1
X17 CSoutput.t178 a_n8300_8799.t40 vdd.t260 vdd.t181 sky130_fd_pr__pfet_01v8 ad=1.32 pd=8.33 as=1.32 ps=8.33 w=8 l=0.5
X18 CSoutput.t66 commonsourceibias.t85 gnd.t286 gnd.t285 sky130_fd_pr__nfet_01v8 ad=1.155 pd=7.33 as=1.155 ps=7.33 w=7 l=1
X19 gnd.t277 commonsourceibias.t86 CSoutput.t60 gnd.t11 sky130_fd_pr__nfet_01v8 ad=1.155 pd=7.33 as=1.155 ps=7.33 w=7 l=1
X20 CSoutput.t86 commonsourceibias.t87 gnd.t324 gnd.t31 sky130_fd_pr__nfet_01v8 ad=1.155 pd=7.33 as=1.155 ps=7.33 w=7 l=1
X21 gnd.t295 commonsourceibias.t88 CSoutput.t74 gnd.t196 sky130_fd_pr__nfet_01v8 ad=2.73 pd=14.78 as=1.155 ps=7.33 w=7 l=1
X22 vdd.t259 a_n8300_8799.t41 CSoutput.t177 vdd.t210 sky130_fd_pr__pfet_01v8 ad=1.32 pd=8.33 as=1.32 ps=8.33 w=8 l=0.5
X23 CSoutput.t14 commonsourceibias.t89 gnd.t32 gnd.t31 sky130_fd_pr__nfet_01v8 ad=1.155 pd=7.33 as=1.155 ps=7.33 w=7 l=1
X24 CSoutput.t2 commonsourceibias.t90 gnd.t5 gnd.t4 sky130_fd_pr__nfet_01v8 ad=1.155 pd=7.33 as=1.155 ps=7.33 w=7 l=1
X25 gnd.t294 commonsourceibias.t91 CSoutput.t73 gnd.t23 sky130_fd_pr__nfet_01v8 ad=1.155 pd=7.33 as=1.155 ps=7.33 w=7 l=1
X26 gnd.t156 gnd.t153 gnd.t155 gnd.t154 sky130_fd_pr__nfet_01v8 ad=2.34 pd=12.78 as=0 ps=0 w=6 l=2
X27 gnd.t152 gnd.t150 gnd.t151 gnd.t56 sky130_fd_pr__nfet_01v8 ad=2.73 pd=14.78 as=0 ps=0 w=7 l=1
X28 commonsourceibias.t79 commonsourceibias.t78 gnd.t378 gnd.t285 sky130_fd_pr__nfet_01v8 ad=1.155 pd=7.33 as=1.155 ps=7.33 w=7 l=1
X29 CSoutput.t202 commonsourceibias.t92 gnd.t369 gnd.t33 sky130_fd_pr__nfet_01v8 ad=1.155 pd=7.33 as=1.155 ps=7.33 w=7 l=1
X30 gnd.t149 gnd.t147 gnd.t148 gnd.t52 sky130_fd_pr__nfet_01v8 ad=2.73 pd=14.78 as=0 ps=0 w=7 l=1
X31 a_n8300_8799.t33 a_n2650_13878.t58 a_n2650_8322.t26 vdd.t2 sky130_fd_pr__pfet_01v8 ad=1.485 pd=9.33 as=1.485 ps=9.33 w=9 l=0.5
X32 vdd.t258 a_n8300_8799.t42 CSoutput.t176 vdd.t145 sky130_fd_pr__pfet_01v8 ad=1.32 pd=8.33 as=1.32 ps=8.33 w=8 l=0.5
X33 a_n2650_13878.t3 minus.t5 a_n2903_n3924.t3 gnd.t175 sky130_fd_pr__nfet_01v8 ad=1.155 pd=7.33 as=1.155 ps=7.33 w=7 l=0.7
X34 vdd.t257 a_n8300_8799.t43 CSoutput.t175 vdd.t230 sky130_fd_pr__pfet_01v8 ad=1.32 pd=8.33 as=1.32 ps=8.33 w=8 l=0.5
X35 a_n8300_8799.t34 a_n2650_13878.t59 a_n2650_8322.t25 vdd.t122 sky130_fd_pr__pfet_01v8 ad=1.485 pd=9.33 as=3.51 ps=18.78 w=9 l=0.5
X36 CSoutput.t213 commonsourceibias.t93 gnd.t391 gnd.t183 sky130_fd_pr__nfet_01v8 ad=1.155 pd=7.33 as=1.155 ps=7.33 w=7 l=1
X37 gnd.t276 commonsourceibias.t94 CSoutput.t59 gnd.t35 sky130_fd_pr__nfet_01v8 ad=1.155 pd=7.33 as=1.155 ps=7.33 w=7 l=1
X38 gnd.t146 gnd.t144 gnd.t145 gnd.t70 sky130_fd_pr__nfet_01v8 ad=2.73 pd=14.78 as=0 ps=0 w=7 l=1
X39 CSoutput.t72 commonsourceibias.t95 gnd.t293 gnd.t21 sky130_fd_pr__nfet_01v8 ad=1.155 pd=7.33 as=1.155 ps=7.33 w=7 l=1
X40 CSoutput.t201 commonsourceibias.t96 gnd.t368 gnd.t162 sky130_fd_pr__nfet_01v8 ad=1.155 pd=7.33 as=1.155 ps=7.33 w=7 l=1
X41 a_n2903_n3924.t36 minus.t6 a_n2650_13878.t54 gnd.t259 sky130_fd_pr__nfet_01v8 ad=2.73 pd=14.78 as=1.155 ps=7.33 w=7 l=0.7
X42 gnd.t143 gnd.t141 minus.t4 gnd.t142 sky130_fd_pr__nfet_01v8 ad=0.165 pd=1.33 as=0.39 ps=2.78 w=1 l=0.5
X43 CSoutput.t212 commonsourceibias.t97 gnd.t390 gnd.t179 sky130_fd_pr__nfet_01v8 ad=1.155 pd=7.33 as=1.155 ps=7.33 w=7 l=1
X44 CSoutput.t174 a_n8300_8799.t44 vdd.t256 vdd.t221 sky130_fd_pr__pfet_01v8 ad=1.32 pd=8.33 as=3.12 ps=16.78 w=8 l=0.5
X45 a_n2903_n3924.t33 diffpairibias.t16 gnd.t342 gnd.t341 sky130_fd_pr__nfet_01v8 ad=2.73 pd=14.78 as=2.73 ps=14.78 w=7 l=1
X46 gnd.t275 commonsourceibias.t98 CSoutput.t58 gnd.t223 sky130_fd_pr__nfet_01v8 ad=2.73 pd=14.78 as=1.155 ps=7.33 w=7 l=1
X47 CSoutput.t173 a_n8300_8799.t45 vdd.t255 vdd.t195 sky130_fd_pr__pfet_01v8 ad=1.32 pd=8.33 as=1.32 ps=8.33 w=8 l=0.5
X48 gnd.t367 commonsourceibias.t99 CSoutput.t200 gnd.t237 sky130_fd_pr__nfet_01v8 ad=1.155 pd=7.33 as=1.155 ps=7.33 w=7 l=1
X49 gnd.t140 gnd.t138 gnd.t139 gnd.t90 sky130_fd_pr__nfet_01v8 ad=2.73 pd=14.78 as=0 ps=0 w=7 l=0.7
X50 CSoutput.t206 commonsourceibias.t100 gnd.t377 gnd.t168 sky130_fd_pr__nfet_01v8 ad=1.155 pd=7.33 as=1.155 ps=7.33 w=7 l=1
X51 vdd.t254 a_n8300_8799.t46 CSoutput.t172 vdd.t145 sky130_fd_pr__pfet_01v8 ad=1.32 pd=8.33 as=1.32 ps=8.33 w=8 l=0.5
X52 CSoutput.t39 commonsourceibias.t101 gnd.t227 gnd.t217 sky130_fd_pr__nfet_01v8 ad=1.155 pd=7.33 as=2.73 ps=14.78 w=7 l=1
X53 gnd.t250 commonsourceibias.t76 commonsourceibias.t77 gnd.t194 sky130_fd_pr__nfet_01v8 ad=1.155 pd=7.33 as=1.155 ps=7.33 w=7 l=1
X54 CSoutput.t46 commonsourceibias.t102 gnd.t243 gnd.t179 sky130_fd_pr__nfet_01v8 ad=1.155 pd=7.33 as=1.155 ps=7.33 w=7 l=1
X55 CSoutput.t171 a_n8300_8799.t47 vdd.t253 vdd.t141 sky130_fd_pr__pfet_01v8 ad=1.32 pd=8.33 as=1.32 ps=8.33 w=8 l=0.5
X56 gnd.t351 commonsourceibias.t103 CSoutput.t188 gnd.t0 sky130_fd_pr__nfet_01v8 ad=1.155 pd=7.33 as=1.155 ps=7.33 w=7 l=1
X57 a_n2903_n3924.t26 plus.t7 a_n8300_8799.t13 gnd.t262 sky130_fd_pr__nfet_01v8 ad=1.155 pd=7.33 as=1.155 ps=7.33 w=7 l=0.7
X58 vdd.t101 vdd.t99 vdd.t100 vdd.t35 sky130_fd_pr__pfet_01v8 ad=3.51 pd=18.78 as=0 ps=0 w=9 l=0.5
X59 a_n2472_13878.t26 a_n2650_13878.t35 a_n2650_13878.t36 vdd.t132 sky130_fd_pr__pfet_01v8 ad=1.485 pd=9.33 as=1.485 ps=9.33 w=9 l=0.5
X60 CSoutput.t13 commonsourceibias.t104 gnd.t30 gnd.t29 sky130_fd_pr__nfet_01v8 ad=1.155 pd=7.33 as=1.155 ps=7.33 w=7 l=1
X61 CSoutput.t25 commonsourceibias.t105 gnd.t187 gnd.t27 sky130_fd_pr__nfet_01v8 ad=1.155 pd=7.33 as=1.155 ps=7.33 w=7 l=1
X62 gnd.t284 commonsourceibias.t106 CSoutput.t65 gnd.t0 sky130_fd_pr__nfet_01v8 ad=1.155 pd=7.33 as=1.155 ps=7.33 w=7 l=1
X63 vdd.t1 CSoutput.t218 output.t17 gnd.t339 sky130_fd_pr__nfet_01v8 ad=0.825 pd=5.33 as=0.825 ps=5.33 w=5 l=1
X64 a_n2650_13878.t42 a_n2650_13878.t41 a_n2472_13878.t25 vdd.t8 sky130_fd_pr__pfet_01v8 ad=1.485 pd=9.33 as=1.485 ps=9.33 w=9 l=0.5
X65 CSoutput.t57 commonsourceibias.t107 gnd.t274 gnd.t272 sky130_fd_pr__nfet_01v8 ad=1.155 pd=7.33 as=1.155 ps=7.33 w=7 l=1
X66 gnd.t323 commonsourceibias.t108 CSoutput.t85 gnd.t244 sky130_fd_pr__nfet_01v8 ad=1.155 pd=7.33 as=1.155 ps=7.33 w=7 l=1
X67 CSoutput.t219 a_n2650_8322.t32 sky130_fd_pr__cap_mim_m3_1 l=12 w=12
X68 a_n8300_8799.t19 plus.t8 a_n2903_n3924.t25 gnd.t199 sky130_fd_pr__nfet_01v8 ad=1.155 pd=7.33 as=1.155 ps=7.33 w=7 l=0.7
X69 CSoutput.t170 a_n8300_8799.t48 vdd.t252 vdd.t181 sky130_fd_pr__pfet_01v8 ad=1.32 pd=8.33 as=1.32 ps=8.33 w=8 l=0.5
X70 vdd.t98 vdd.t96 vdd.t97 vdd.t73 sky130_fd_pr__pfet_01v8 ad=3.51 pd=18.78 as=0 ps=0 w=9 l=0.5
X71 gnd.t296 commonsourceibias.t74 commonsourceibias.t75 gnd.t267 sky130_fd_pr__nfet_01v8 ad=1.155 pd=7.33 as=1.155 ps=7.33 w=7 l=1
X72 CSoutput.t71 commonsourceibias.t109 gnd.t292 gnd.t31 sky130_fd_pr__nfet_01v8 ad=1.155 pd=7.33 as=1.155 ps=7.33 w=7 l=1
X73 vdd.t251 a_n8300_8799.t49 CSoutput.t169 vdd.t210 sky130_fd_pr__pfet_01v8 ad=1.32 pd=8.33 as=1.32 ps=8.33 w=8 l=0.5
X74 gnd.t137 gnd.t135 gnd.t136 gnd.t70 sky130_fd_pr__nfet_01v8 ad=2.73 pd=14.78 as=0 ps=0 w=7 l=1
X75 CSoutput.t12 commonsourceibias.t110 gnd.t28 gnd.t27 sky130_fd_pr__nfet_01v8 ad=1.155 pd=7.33 as=1.155 ps=7.33 w=7 l=1
X76 diffpairibias.t15 diffpairibias.t14 gnd.t344 gnd.t343 sky130_fd_pr__nfet_01v8 ad=2.73 pd=14.78 as=2.73 ps=14.78 w=7 l=1
X77 gnd.t3 commonsourceibias.t111 CSoutput.t1 gnd.t2 sky130_fd_pr__nfet_01v8 ad=1.155 pd=7.33 as=1.155 ps=7.33 w=7 l=1
X78 a_n2650_13878.t52 minus.t7 a_n2903_n3924.t34 gnd.t260 sky130_fd_pr__nfet_01v8 ad=1.155 pd=7.33 as=1.155 ps=7.33 w=7 l=0.7
X79 a_n2650_13878.t34 a_n2650_13878.t33 a_n2472_13878.t24 vdd.t3 sky130_fd_pr__pfet_01v8 ad=1.485 pd=9.33 as=1.485 ps=9.33 w=9 l=0.5
X80 CSoutput.t70 commonsourceibias.t112 gnd.t291 gnd.t217 sky130_fd_pr__nfet_01v8 ad=1.155 pd=7.33 as=2.73 ps=14.78 w=7 l=1
X81 CSoutput.t187 commonsourceibias.t113 gnd.t350 gnd.t239 sky130_fd_pr__nfet_01v8 ad=1.155 pd=7.33 as=1.155 ps=7.33 w=7 l=1
X82 gnd.t186 commonsourceibias.t114 CSoutput.t24 gnd.t173 sky130_fd_pr__nfet_01v8 ad=1.155 pd=7.33 as=1.155 ps=7.33 w=7 l=1
X83 a_n8300_8799.t26 a_n2650_13878.t60 a_n2650_8322.t24 vdd.t123 sky130_fd_pr__pfet_01v8 ad=1.485 pd=9.33 as=1.485 ps=9.33 w=9 l=0.5
X84 gnd.t283 commonsourceibias.t115 CSoutput.t64 gnd.t13 sky130_fd_pr__nfet_01v8 ad=1.155 pd=7.33 as=1.155 ps=7.33 w=7 l=1
X85 CSoutput.t168 a_n8300_8799.t50 vdd.t250 vdd.t219 sky130_fd_pr__pfet_01v8 ad=1.32 pd=8.33 as=1.32 ps=8.33 w=8 l=0.5
X86 gnd.t322 commonsourceibias.t116 CSoutput.t84 gnd.t15 sky130_fd_pr__nfet_01v8 ad=1.155 pd=7.33 as=1.155 ps=7.33 w=7 l=1
X87 a_n2650_13878.t44 a_n2650_13878.t43 a_n2472_13878.t23 vdd.t4 sky130_fd_pr__pfet_01v8 ad=3.51 pd=18.78 as=1.485 ps=9.33 w=9 l=0.5
X88 vdd.t249 a_n8300_8799.t51 CSoutput.t167 vdd.t156 sky130_fd_pr__pfet_01v8 ad=1.32 pd=8.33 as=1.32 ps=8.33 w=8 l=0.5
X89 vdd.t248 a_n8300_8799.t52 CSoutput.t166 vdd.t230 sky130_fd_pr__pfet_01v8 ad=1.32 pd=8.33 as=1.32 ps=8.33 w=8 l=0.5
X90 a_n8300_8799.t27 a_n2650_13878.t61 a_n2650_8322.t23 vdd.t124 sky130_fd_pr__pfet_01v8 ad=1.485 pd=9.33 as=3.51 ps=18.78 w=9 l=0.5
X91 CSoutput.t199 commonsourceibias.t117 gnd.t366 gnd.t239 sky130_fd_pr__nfet_01v8 ad=1.155 pd=7.33 as=1.155 ps=7.33 w=7 l=1
X92 diffpairibias.t13 diffpairibias.t12 gnd.t301 gnd.t300 sky130_fd_pr__nfet_01v8 ad=2.73 pd=14.78 as=2.73 ps=14.78 w=7 l=1
X93 CSoutput.t165 a_n8300_8799.t53 vdd.t247 vdd.t163 sky130_fd_pr__pfet_01v8 ad=1.32 pd=8.33 as=1.32 ps=8.33 w=8 l=0.5
X94 gnd.t392 commonsourceibias.t72 commonsourceibias.t73 gnd.t289 sky130_fd_pr__nfet_01v8 ad=1.155 pd=7.33 as=1.155 ps=7.33 w=7 l=1
X95 gnd.t389 commonsourceibias.t118 CSoutput.t211 gnd.t23 sky130_fd_pr__nfet_01v8 ad=1.155 pd=7.33 as=1.155 ps=7.33 w=7 l=1
X96 CSoutput.t56 commonsourceibias.t119 gnd.t273 gnd.t272 sky130_fd_pr__nfet_01v8 ad=1.155 pd=7.33 as=1.155 ps=7.33 w=7 l=1
X97 gnd.t290 commonsourceibias.t120 CSoutput.t69 gnd.t289 sky130_fd_pr__nfet_01v8 ad=1.155 pd=7.33 as=1.155 ps=7.33 w=7 l=1
X98 CSoutput.t11 commonsourceibias.t121 gnd.t26 gnd.t4 sky130_fd_pr__nfet_01v8 ad=1.155 pd=7.33 as=1.155 ps=7.33 w=7 l=1
X99 CSoutput.t48 commonsourceibias.t122 gnd.t249 gnd.t166 sky130_fd_pr__nfet_01v8 ad=1.155 pd=7.33 as=1.155 ps=7.33 w=7 l=1
X100 a_n2650_8322.t22 a_n2650_13878.t62 a_n8300_8799.t15 vdd.t4 sky130_fd_pr__pfet_01v8 ad=3.51 pd=18.78 as=1.485 ps=9.33 w=9 l=0.5
X101 CSoutput.t198 commonsourceibias.t123 gnd.t365 gnd.t38 sky130_fd_pr__nfet_01v8 ad=1.155 pd=7.33 as=1.155 ps=7.33 w=7 l=1
X102 vdd.t95 vdd.t93 vdd.t94 vdd.t60 sky130_fd_pr__pfet_01v8 ad=3.12 pd=16.78 as=0 ps=0 w=8 l=0.5
X103 gnd.t376 commonsourceibias.t124 CSoutput.t205 gnd.t35 sky130_fd_pr__nfet_01v8 ad=1.155 pd=7.33 as=1.155 ps=7.33 w=7 l=1
X104 CSoutput.t164 a_n8300_8799.t54 vdd.t246 vdd.t198 sky130_fd_pr__pfet_01v8 ad=1.32 pd=8.33 as=1.32 ps=8.33 w=8 l=0.5
X105 gnd.t398 commonsourceibias.t70 commonsourceibias.t71 gnd.t209 sky130_fd_pr__nfet_01v8 ad=1.155 pd=7.33 as=1.155 ps=7.33 w=7 l=1
X106 gnd.t315 commonsourceibias.t68 commonsourceibias.t69 gnd.t223 sky130_fd_pr__nfet_01v8 ad=2.73 pd=14.78 as=1.155 ps=7.33 w=7 l=1
X107 CSoutput.t38 commonsourceibias.t125 gnd.t226 gnd.t168 sky130_fd_pr__nfet_01v8 ad=1.155 pd=7.33 as=1.155 ps=7.33 w=7 l=1
X108 vdd.t265 CSoutput.t220 output.t16 gnd.t338 sky130_fd_pr__nfet_01v8 ad=0.825 pd=5.33 as=0.825 ps=5.33 w=5 l=1
X109 output.t15 CSoutput.t221 vdd.t266 gnd.t337 sky130_fd_pr__nfet_01v8 ad=0.825 pd=5.33 as=0.825 ps=5.33 w=5 l=1
X110 CSoutput.t45 commonsourceibias.t126 gnd.t242 gnd.t29 sky130_fd_pr__nfet_01v8 ad=1.155 pd=7.33 as=1.155 ps=7.33 w=7 l=1
X111 a_n2903_n3924.t24 plus.t9 a_n8300_8799.t10 gnd.t261 sky130_fd_pr__nfet_01v8 ad=2.73 pd=14.78 as=1.155 ps=7.33 w=7 l=0.7
X112 gnd.t134 gnd.t132 minus.t3 gnd.t133 sky130_fd_pr__nfet_01v8 ad=0.165 pd=1.33 as=0.165 ps=1.33 w=1 l=0.5
X113 gnd.t349 commonsourceibias.t127 CSoutput.t186 gnd.t289 sky130_fd_pr__nfet_01v8 ad=1.155 pd=7.33 as=1.155 ps=7.33 w=7 l=1
X114 a_n2903_n3924.t37 diffpairibias.t17 gnd.t373 gnd.t372 sky130_fd_pr__nfet_01v8 ad=2.73 pd=14.78 as=2.73 ps=14.78 w=7 l=1
X115 CSoutput.t222 a_n2650_8322.t31 sky130_fd_pr__cap_mim_m3_1 l=12 w=12
X116 vdd.t245 a_n8300_8799.t55 CSoutput.t163 vdd.t208 sky130_fd_pr__pfet_01v8 ad=1.32 pd=8.33 as=1.32 ps=8.33 w=8 l=0.5
X117 gnd.t131 gnd.t129 gnd.t130 gnd.t48 sky130_fd_pr__nfet_01v8 ad=2.73 pd=14.78 as=0 ps=0 w=7 l=1
X118 vdd.t244 a_n8300_8799.t56 CSoutput.t162 vdd.t234 sky130_fd_pr__pfet_01v8 ad=1.32 pd=8.33 as=1.32 ps=8.33 w=8 l=0.5
X119 a_n2650_13878.t30 a_n2650_13878.t29 a_n2472_13878.t22 vdd.t7 sky130_fd_pr__pfet_01v8 ad=1.485 pd=9.33 as=1.485 ps=9.33 w=9 l=0.5
X120 vdd.t243 a_n8300_8799.t57 CSoutput.t161 vdd.t189 sky130_fd_pr__pfet_01v8 ad=3.12 pd=16.78 as=1.32 ps=8.33 w=8 l=0.5
X121 vdd.t240 a_n8300_8799.t58 CSoutput.t160 vdd.t215 sky130_fd_pr__pfet_01v8 ad=1.32 pd=8.33 as=1.32 ps=8.33 w=8 l=0.5
X122 gnd.t346 commonsourceibias.t128 CSoutput.t184 gnd.t237 sky130_fd_pr__nfet_01v8 ad=1.155 pd=7.33 as=1.155 ps=7.33 w=7 l=1
X123 gnd.t128 gnd.t125 gnd.t127 gnd.t126 sky130_fd_pr__nfet_01v8 ad=1.95 pd=10.78 as=0 ps=0 w=5 l=1
X124 a_n8300_8799.t16 a_n2650_13878.t63 a_n2650_8322.t21 vdd.t110 sky130_fd_pr__pfet_01v8 ad=1.485 pd=9.33 as=1.485 ps=9.33 w=9 l=0.5
X125 a_n2650_13878.t16 a_n2650_13878.t15 a_n2472_13878.t21 vdd.t16 sky130_fd_pr__pfet_01v8 ad=3.51 pd=18.78 as=1.485 ps=9.33 w=9 l=0.5
X126 gnd.t124 gnd.t122 gnd.t123 gnd.t48 sky130_fd_pr__nfet_01v8 ad=2.73 pd=14.78 as=0 ps=0 w=7 l=1
X127 gnd.t25 commonsourceibias.t129 CSoutput.t10 gnd.t2 sky130_fd_pr__nfet_01v8 ad=1.155 pd=7.33 as=1.155 ps=7.33 w=7 l=1
X128 CSoutput.t23 commonsourceibias.t130 gnd.t185 gnd.t162 sky130_fd_pr__nfet_01v8 ad=1.155 pd=7.33 as=1.155 ps=7.33 w=7 l=1
X129 commonsourceibias.t67 commonsourceibias.t66 gnd.t316 gnd.t29 sky130_fd_pr__nfet_01v8 ad=1.155 pd=7.33 as=1.155 ps=7.33 w=7 l=1
X130 vdd.t242 a_n8300_8799.t59 CSoutput.t159 vdd.t160 sky130_fd_pr__pfet_01v8 ad=1.32 pd=8.33 as=1.32 ps=8.33 w=8 l=0.5
X131 CSoutput.t158 a_n8300_8799.t60 vdd.t241 vdd.t193 sky130_fd_pr__pfet_01v8 ad=1.32 pd=8.33 as=1.32 ps=8.33 w=8 l=0.5
X132 gnd.t282 commonsourceibias.t131 CSoutput.t63 gnd.t164 sky130_fd_pr__nfet_01v8 ad=1.155 pd=7.33 as=1.155 ps=7.33 w=7 l=1
X133 a_n2650_13878.t1 minus.t8 a_n2903_n3924.t1 gnd.t9 sky130_fd_pr__nfet_01v8 ad=1.155 pd=7.33 as=1.155 ps=7.33 w=7 l=0.7
X134 gnd.t271 commonsourceibias.t132 CSoutput.t55 gnd.t211 sky130_fd_pr__nfet_01v8 ad=1.155 pd=7.33 as=1.155 ps=7.33 w=7 l=1
X135 vdd.t92 vdd.t90 vdd.t91 vdd.t77 sky130_fd_pr__pfet_01v8 ad=3.51 pd=18.78 as=0 ps=0 w=9 l=0.5
X136 gnd.t178 commonsourceibias.t64 commonsourceibias.t65 gnd.t11 sky130_fd_pr__nfet_01v8 ad=1.155 pd=7.33 as=1.155 ps=7.33 w=7 l=1
X137 gnd.t321 commonsourceibias.t133 CSoutput.t83 gnd.t194 sky130_fd_pr__nfet_01v8 ad=1.155 pd=7.33 as=1.155 ps=7.33 w=7 l=1
X138 CSoutput.t157 a_n8300_8799.t61 vdd.t239 vdd.t163 sky130_fd_pr__pfet_01v8 ad=1.32 pd=8.33 as=1.32 ps=8.33 w=8 l=0.5
X139 vdd.t89 vdd.t86 vdd.t88 vdd.t87 sky130_fd_pr__pfet_01v8 ad=3.51 pd=18.78 as=0 ps=0 w=9 l=0.5
X140 gnd.t121 gnd.t119 gnd.t120 gnd.t66 sky130_fd_pr__nfet_01v8 ad=2.73 pd=14.78 as=0 ps=0 w=7 l=0.7
X141 a_n2903_n3924.t2 minus.t9 a_n2650_13878.t2 gnd.t10 sky130_fd_pr__nfet_01v8 ad=1.155 pd=7.33 as=1.155 ps=7.33 w=7 l=0.7
X142 CSoutput.t156 a_n8300_8799.t62 vdd.t238 vdd.t137 sky130_fd_pr__pfet_01v8 ad=1.32 pd=8.33 as=1.32 ps=8.33 w=8 l=0.5
X143 gnd.t118 gnd.t116 gnd.t117 gnd.t52 sky130_fd_pr__nfet_01v8 ad=2.73 pd=14.78 as=0 ps=0 w=7 l=1
X144 vdd.t237 a_n8300_8799.t63 CSoutput.t155 vdd.t234 sky130_fd_pr__pfet_01v8 ad=1.32 pd=8.33 as=1.32 ps=8.33 w=8 l=0.5
X145 vdd.t134 a_n2650_13878.t64 a_n2650_8322.t7 vdd.t133 sky130_fd_pr__pfet_01v8 ad=1.485 pd=9.33 as=1.485 ps=9.33 w=9 l=0.5
X146 a_n2650_13878.t26 a_n2650_13878.t25 a_n2472_13878.t20 vdd.t131 sky130_fd_pr__pfet_01v8 ad=1.485 pd=9.33 as=1.485 ps=9.33 w=9 l=0.5
X147 vdd.t85 vdd.t83 vdd.t84 vdd.t53 sky130_fd_pr__pfet_01v8 ad=3.12 pd=16.78 as=0 ps=0 w=8 l=0.5
X148 vdd.t82 vdd.t80 vdd.t81 vdd.t60 sky130_fd_pr__pfet_01v8 ad=3.12 pd=16.78 as=0 ps=0 w=8 l=0.5
X149 CSoutput.t68 commonsourceibias.t134 gnd.t288 gnd.t230 sky130_fd_pr__nfet_01v8 ad=1.155 pd=7.33 as=2.73 ps=14.78 w=7 l=1
X150 a_n2650_8322.t6 a_n2650_13878.t65 vdd.t136 vdd.t135 sky130_fd_pr__pfet_01v8 ad=1.485 pd=9.33 as=1.485 ps=9.33 w=9 l=0.5
X151 gnd.t24 commonsourceibias.t135 CSoutput.t9 gnd.t23 sky130_fd_pr__nfet_01v8 ad=1.155 pd=7.33 as=1.155 ps=7.33 w=7 l=1
X152 a_n2903_n3924.t8 diffpairibias.t18 gnd.t206 gnd.t205 sky130_fd_pr__nfet_01v8 ad=2.73 pd=14.78 as=2.73 ps=14.78 w=7 l=1
X153 output.t14 CSoutput.t223 vdd.t19 gnd.t336 sky130_fd_pr__nfet_01v8 ad=0.825 pd=5.33 as=0.825 ps=5.33 w=5 l=1
X154 CSoutput.t154 a_n8300_8799.t64 vdd.t236 vdd.t198 sky130_fd_pr__pfet_01v8 ad=1.32 pd=8.33 as=1.32 ps=8.33 w=8 l=0.5
X155 vdd.t20 CSoutput.t224 output.t13 gnd.t335 sky130_fd_pr__nfet_01v8 ad=0.825 pd=5.33 as=0.825 ps=5.33 w=5 l=1
X156 gnd.t1 commonsourceibias.t136 CSoutput.t0 gnd.t0 sky130_fd_pr__nfet_01v8 ad=1.155 pd=7.33 as=1.155 ps=7.33 w=7 l=1
X157 gnd.t354 commonsourceibias.t62 commonsourceibias.t63 gnd.t173 sky130_fd_pr__nfet_01v8 ad=1.155 pd=7.33 as=1.155 ps=7.33 w=7 l=1
X158 CSoutput.t67 commonsourceibias.t137 gnd.t287 gnd.t4 sky130_fd_pr__nfet_01v8 ad=1.155 pd=7.33 as=1.155 ps=7.33 w=7 l=1
X159 gnd.t225 commonsourceibias.t138 CSoutput.t37 gnd.t209 sky130_fd_pr__nfet_01v8 ad=1.155 pd=7.33 as=1.155 ps=7.33 w=7 l=1
X160 CSoutput.t185 commonsourceibias.t139 gnd.t348 gnd.t221 sky130_fd_pr__nfet_01v8 ad=1.155 pd=7.33 as=1.155 ps=7.33 w=7 l=1
X161 CSoutput.t183 commonsourceibias.t140 gnd.t345 gnd.t230 sky130_fd_pr__nfet_01v8 ad=1.155 pd=7.33 as=2.73 ps=14.78 w=7 l=1
X162 CSoutput.t22 commonsourceibias.t141 gnd.t184 gnd.t183 sky130_fd_pr__nfet_01v8 ad=1.155 pd=7.33 as=1.155 ps=7.33 w=7 l=1
X163 a_n2903_n3924.t35 minus.t10 a_n2650_13878.t53 gnd.t257 sky130_fd_pr__nfet_01v8 ad=1.155 pd=7.33 as=1.155 ps=7.33 w=7 l=0.7
X164 gnd.t115 gnd.t113 plus.t1 gnd.t114 sky130_fd_pr__nfet_01v8 ad=0.165 pd=1.33 as=0.39 ps=2.78 w=1 l=0.5
X165 vdd.t117 a_n2650_13878.t66 a_n2472_13878.t6 vdd.t116 sky130_fd_pr__pfet_01v8 ad=1.485 pd=9.33 as=1.485 ps=9.33 w=9 l=0.5
X166 a_n2903_n3924.t23 plus.t10 a_n8300_8799.t20 gnd.t216 sky130_fd_pr__nfet_01v8 ad=1.155 pd=7.33 as=1.155 ps=7.33 w=7 l=0.7
X167 vdd.t79 vdd.t76 vdd.t78 vdd.t77 sky130_fd_pr__pfet_01v8 ad=3.51 pd=18.78 as=0 ps=0 w=9 l=0.5
X168 vdd.t235 a_n8300_8799.t65 CSoutput.t153 vdd.t234 sky130_fd_pr__pfet_01v8 ad=1.32 pd=8.33 as=1.32 ps=8.33 w=8 l=0.5
X169 vdd.t21 CSoutput.t225 output.t12 gnd.t334 sky130_fd_pr__nfet_01v8 ad=0.825 pd=5.33 as=0.825 ps=5.33 w=5 l=1
X170 gnd.t112 gnd.t110 gnd.t111 gnd.t48 sky130_fd_pr__nfet_01v8 ad=2.73 pd=14.78 as=0 ps=0 w=7 l=1
X171 vdd.t233 a_n8300_8799.t66 CSoutput.t152 vdd.t215 sky130_fd_pr__pfet_01v8 ad=1.32 pd=8.33 as=1.32 ps=8.33 w=8 l=0.5
X172 a_n8300_8799.t0 plus.t11 a_n2903_n3924.t22 gnd.t204 sky130_fd_pr__nfet_01v8 ad=1.155 pd=7.33 as=2.73 ps=14.78 w=7 l=0.7
X173 a_n8300_8799.t4 plus.t12 a_n2903_n3924.t21 gnd.t248 sky130_fd_pr__nfet_01v8 ad=1.155 pd=7.33 as=2.73 ps=14.78 w=7 l=0.7
X174 vdd.t75 vdd.t72 vdd.t74 vdd.t73 sky130_fd_pr__pfet_01v8 ad=3.51 pd=18.78 as=0 ps=0 w=9 l=0.5
X175 a_n2650_8322.t5 a_n2650_13878.t67 vdd.t119 vdd.t118 sky130_fd_pr__pfet_01v8 ad=3.51 pd=18.78 as=1.485 ps=9.33 w=9 l=0.5
X176 a_n8300_8799.t24 a_n2650_13878.t68 a_n2650_8322.t20 vdd.t102 sky130_fd_pr__pfet_01v8 ad=1.485 pd=9.33 as=1.485 ps=9.33 w=9 l=0.5
X177 CSoutput.t151 a_n8300_8799.t67 vdd.t232 vdd.t170 sky130_fd_pr__pfet_01v8 ad=1.32 pd=8.33 as=1.32 ps=8.33 w=8 l=0.5
X178 diffpairibias.t11 diffpairibias.t10 gnd.t313 gnd.t312 sky130_fd_pr__nfet_01v8 ad=2.73 pd=14.78 as=2.73 ps=14.78 w=7 l=1
X179 vdd.t231 a_n8300_8799.t68 CSoutput.t150 vdd.t230 sky130_fd_pr__pfet_01v8 ad=1.32 pd=8.33 as=1.32 ps=8.33 w=8 l=0.5
X180 a_n2650_13878.t51 minus.t11 a_n2903_n3924.t32 gnd.t258 sky130_fd_pr__nfet_01v8 ad=1.155 pd=7.33 as=1.155 ps=7.33 w=7 l=0.7
X181 a_n2650_13878.t38 a_n2650_13878.t37 a_n2472_13878.t19 vdd.t15 sky130_fd_pr__pfet_01v8 ad=1.485 pd=9.33 as=1.485 ps=9.33 w=9 l=0.5
X182 vdd.t229 a_n8300_8799.t69 CSoutput.t149 vdd.t160 sky130_fd_pr__pfet_01v8 ad=1.32 pd=8.33 as=1.32 ps=8.33 w=8 l=0.5
X183 CSoutput.t62 commonsourceibias.t142 gnd.t281 gnd.t19 sky130_fd_pr__nfet_01v8 ad=1.155 pd=7.33 as=1.155 ps=7.33 w=7 l=1
X184 a_n8300_8799.t25 a_n2650_13878.t69 a_n2650_8322.t19 vdd.t115 sky130_fd_pr__pfet_01v8 ad=1.485 pd=9.33 as=1.485 ps=9.33 w=9 l=0.5
X185 CSoutput.t148 a_n8300_8799.t70 vdd.t228 vdd.t193 sky130_fd_pr__pfet_01v8 ad=1.32 pd=8.33 as=1.32 ps=8.33 w=8 l=0.5
X186 commonsourceibias.t61 commonsourceibias.t60 gnd.t381 gnd.t33 sky130_fd_pr__nfet_01v8 ad=1.155 pd=7.33 as=1.155 ps=7.33 w=7 l=1
X187 output.t11 CSoutput.t226 vdd.t22 gnd.t333 sky130_fd_pr__nfet_01v8 ad=0.825 pd=5.33 as=0.825 ps=5.33 w=5 l=1
X188 gnd.t320 commonsourceibias.t143 CSoutput.t82 gnd.t244 sky130_fd_pr__nfet_01v8 ad=1.155 pd=7.33 as=1.155 ps=7.33 w=7 l=1
X189 a_n2472_13878.t18 a_n2650_13878.t21 a_n2650_13878.t22 vdd.t110 sky130_fd_pr__pfet_01v8 ad=1.485 pd=9.33 as=1.485 ps=9.33 w=9 l=0.5
X190 gnd.t219 commonsourceibias.t58 commonsourceibias.t59 gnd.t188 sky130_fd_pr__nfet_01v8 ad=1.155 pd=7.33 as=1.155 ps=7.33 w=7 l=1
X191 a_n2903_n3924.t0 minus.t12 a_n2650_13878.t0 gnd.t6 sky130_fd_pr__nfet_01v8 ad=1.155 pd=7.33 as=1.155 ps=7.33 w=7 l=0.7
X192 CSoutput.t17 commonsourceibias.t144 gnd.t163 gnd.t162 sky130_fd_pr__nfet_01v8 ad=1.155 pd=7.33 as=1.155 ps=7.33 w=7 l=1
X193 minus.t2 gnd.t107 gnd.t109 gnd.t108 sky130_fd_pr__nfet_01v8 ad=0.165 pd=1.33 as=0.165 ps=1.33 w=1 l=0.5
X194 CSoutput.t147 a_n8300_8799.t71 vdd.t225 vdd.t219 sky130_fd_pr__pfet_01v8 ad=1.32 pd=8.33 as=1.32 ps=8.33 w=8 l=0.5
X195 output.t10 CSoutput.t227 vdd.t10 gnd.t332 sky130_fd_pr__nfet_01v8 ad=0.825 pd=5.33 as=0.825 ps=5.33 w=5 l=1
X196 CSoutput.t204 commonsourceibias.t145 gnd.t375 gnd.t27 sky130_fd_pr__nfet_01v8 ad=1.155 pd=7.33 as=1.155 ps=7.33 w=7 l=1
X197 vdd.t25 a_n2650_13878.t70 a_n2650_8322.t4 vdd.t24 sky130_fd_pr__pfet_01v8 ad=1.485 pd=9.33 as=3.51 ps=18.78 w=9 l=0.5
X198 a_n2472_13878.t17 a_n2650_13878.t39 a_n2650_13878.t40 vdd.t2 sky130_fd_pr__pfet_01v8 ad=1.485 pd=9.33 as=1.485 ps=9.33 w=9 l=0.5
X199 vdd.t227 a_n8300_8799.t72 CSoutput.t146 vdd.t217 sky130_fd_pr__pfet_01v8 ad=1.32 pd=8.33 as=1.32 ps=8.33 w=8 l=0.5
X200 gnd.t212 commonsourceibias.t146 CSoutput.t34 gnd.t211 sky130_fd_pr__nfet_01v8 ad=1.155 pd=7.33 as=1.155 ps=7.33 w=7 l=1
X201 gnd.t356 commonsourceibias.t147 CSoutput.t191 gnd.t188 sky130_fd_pr__nfet_01v8 ad=1.155 pd=7.33 as=1.155 ps=7.33 w=7 l=1
X202 vdd.t71 vdd.t69 vdd.t70 vdd.t53 sky130_fd_pr__pfet_01v8 ad=3.12 pd=16.78 as=0 ps=0 w=8 l=0.5
X203 a_n2650_13878.t28 a_n2650_13878.t27 a_n2472_13878.t16 vdd.t9 sky130_fd_pr__pfet_01v8 ad=1.485 pd=9.33 as=1.485 ps=9.33 w=9 l=0.5
X204 gnd.t307 commonsourceibias.t148 CSoutput.t79 gnd.t13 sky130_fd_pr__nfet_01v8 ad=1.155 pd=7.33 as=1.155 ps=7.33 w=7 l=1
X205 gnd.t203 commonsourceibias.t149 CSoutput.t30 gnd.t35 sky130_fd_pr__nfet_01v8 ad=1.155 pd=7.33 as=1.155 ps=7.33 w=7 l=1
X206 commonsourceibias.t57 commonsourceibias.t56 gnd.t198 gnd.t4 sky130_fd_pr__nfet_01v8 ad=1.155 pd=7.33 as=1.155 ps=7.33 w=7 l=1
X207 gnd.t397 commonsourceibias.t150 CSoutput.t215 gnd.t188 sky130_fd_pr__nfet_01v8 ad=1.155 pd=7.33 as=1.155 ps=7.33 w=7 l=1
X208 gnd.t106 gnd.t104 gnd.t105 gnd.t56 sky130_fd_pr__nfet_01v8 ad=2.73 pd=14.78 as=0 ps=0 w=7 l=1
X209 gnd.t197 commonsourceibias.t151 CSoutput.t28 gnd.t196 sky130_fd_pr__nfet_01v8 ad=2.73 pd=14.78 as=1.155 ps=7.33 w=7 l=1
X210 vdd.t226 a_n8300_8799.t73 CSoutput.t145 vdd.t172 sky130_fd_pr__pfet_01v8 ad=1.32 pd=8.33 as=1.32 ps=8.33 w=8 l=0.5
X211 CSoutput.t8 commonsourceibias.t152 gnd.t22 gnd.t21 sky130_fd_pr__nfet_01v8 ad=1.155 pd=7.33 as=1.155 ps=7.33 w=7 l=1
X212 a_n2903_n3924.t10 diffpairibias.t19 gnd.t236 gnd.t235 sky130_fd_pr__nfet_01v8 ad=2.73 pd=14.78 as=2.73 ps=14.78 w=7 l=1
X213 gnd.t103 gnd.t100 gnd.t102 gnd.t101 sky130_fd_pr__nfet_01v8 ad=2.73 pd=14.78 as=0 ps=0 w=7 l=1
X214 a_n2903_n3924.t6 diffpairibias.t20 gnd.t201 gnd.t200 sky130_fd_pr__nfet_01v8 ad=2.73 pd=14.78 as=2.73 ps=14.78 w=7 l=1
X215 commonsourceibias.t55 commonsourceibias.t54 gnd.t215 gnd.t183 sky130_fd_pr__nfet_01v8 ad=1.155 pd=7.33 as=1.155 ps=7.33 w=7 l=1
X216 vdd.t224 a_n8300_8799.t74 CSoutput.t144 vdd.t208 sky130_fd_pr__pfet_01v8 ad=1.32 pd=8.33 as=1.32 ps=8.33 w=8 l=0.5
X217 gnd.t99 gnd.t97 gnd.t98 gnd.t70 sky130_fd_pr__nfet_01v8 ad=2.73 pd=14.78 as=0 ps=0 w=7 l=1
X218 CSoutput.t7 commonsourceibias.t153 gnd.t20 gnd.t19 sky130_fd_pr__nfet_01v8 ad=1.155 pd=7.33 as=1.155 ps=7.33 w=7 l=1
X219 CSoutput.t19 commonsourceibias.t154 gnd.t167 gnd.t166 sky130_fd_pr__nfet_01v8 ad=1.155 pd=7.33 as=1.155 ps=7.33 w=7 l=1
X220 a_n2472_13878.t15 a_n2650_13878.t31 a_n2650_13878.t32 vdd.t121 sky130_fd_pr__pfet_01v8 ad=1.485 pd=9.33 as=1.485 ps=9.33 w=9 l=0.5
X221 vdd.t68 vdd.t66 vdd.t67 vdd.t31 sky130_fd_pr__pfet_01v8 ad=3.51 pd=18.78 as=0 ps=0 w=9 l=0.5
X222 commonsourceibias.t53 commonsourceibias.t52 gnd.t169 gnd.t168 sky130_fd_pr__nfet_01v8 ad=1.155 pd=7.33 as=1.155 ps=7.33 w=7 l=1
X223 gnd.t96 gnd.t93 gnd.t95 gnd.t94 sky130_fd_pr__nfet_01v8 ad=1.95 pd=10.78 as=0 ps=0 w=5 l=1
X224 a_n2650_8322.t18 a_n2650_13878.t71 a_n8300_8799.t7 vdd.t3 sky130_fd_pr__pfet_01v8 ad=1.485 pd=9.33 as=1.485 ps=9.33 w=9 l=0.5
X225 output.t2 outputibias.t8 gnd.t252 gnd.t251 sky130_fd_pr__nfet_01v8 ad=2.34 pd=12.78 as=2.34 ps=12.78 w=6 l=2
X226 CSoutput.t143 a_n8300_8799.t75 vdd.t223 vdd.t143 sky130_fd_pr__pfet_01v8 ad=1.32 pd=8.33 as=1.32 ps=8.33 w=8 l=0.5
X227 CSoutput.t40 commonsourceibias.t155 gnd.t232 gnd.t168 sky130_fd_pr__nfet_01v8 ad=1.155 pd=7.33 as=1.155 ps=7.33 w=7 l=1
X228 CSoutput.t142 a_n8300_8799.t76 vdd.t222 vdd.t221 sky130_fd_pr__pfet_01v8 ad=1.32 pd=8.33 as=3.12 ps=16.78 w=8 l=0.5
X229 commonsourceibias.t51 commonsourceibias.t50 gnd.t180 gnd.t179 sky130_fd_pr__nfet_01v8 ad=1.155 pd=7.33 as=1.155 ps=7.33 w=7 l=1
X230 CSoutput.t44 commonsourceibias.t156 gnd.t241 gnd.t38 sky130_fd_pr__nfet_01v8 ad=1.155 pd=7.33 as=1.155 ps=7.33 w=7 l=1
X231 outputibias.t7 outputibias.t6 gnd.t191 gnd.t190 sky130_fd_pr__nfet_01v8 ad=2.34 pd=12.78 as=2.34 ps=12.78 w=6 l=2
X232 gnd.t220 commonsourceibias.t48 commonsourceibias.t49 gnd.t0 sky130_fd_pr__nfet_01v8 ad=1.155 pd=7.33 as=1.155 ps=7.33 w=7 l=1
X233 vdd.t11 CSoutput.t228 output.t9 gnd.t331 sky130_fd_pr__nfet_01v8 ad=0.825 pd=5.33 as=0.825 ps=5.33 w=5 l=1
X234 diffpairibias.t9 diffpairibias.t8 gnd.t177 gnd.t176 sky130_fd_pr__nfet_01v8 ad=2.73 pd=14.78 as=2.73 ps=14.78 w=7 l=1
X235 a_n2472_13878.t5 a_n2650_13878.t72 vdd.t112 vdd.t111 sky130_fd_pr__pfet_01v8 ad=1.485 pd=9.33 as=1.485 ps=9.33 w=9 l=0.5
X236 output.t19 outputibias.t9 gnd.t380 gnd.t379 sky130_fd_pr__nfet_01v8 ad=2.34 pd=12.78 as=2.34 ps=12.78 w=6 l=2
X237 vdd.t114 a_n2650_13878.t73 a_n2472_13878.t4 vdd.t113 sky130_fd_pr__pfet_01v8 ad=1.485 pd=9.33 as=1.485 ps=9.33 w=9 l=0.5
X238 CSoutput.t190 commonsourceibias.t157 gnd.t353 gnd.t21 sky130_fd_pr__nfet_01v8 ad=1.155 pd=7.33 as=1.155 ps=7.33 w=7 l=1
X239 CSoutput.t6 commonsourceibias.t158 gnd.t18 gnd.t17 sky130_fd_pr__nfet_01v8 ad=1.155 pd=7.33 as=1.155 ps=7.33 w=7 l=1
X240 CSoutput.t141 a_n8300_8799.t77 vdd.t220 vdd.t219 sky130_fd_pr__pfet_01v8 ad=1.32 pd=8.33 as=1.32 ps=8.33 w=8 l=0.5
X241 CSoutput.t78 commonsourceibias.t159 gnd.t305 gnd.t38 sky130_fd_pr__nfet_01v8 ad=1.155 pd=7.33 as=1.155 ps=7.33 w=7 l=1
X242 gnd.t278 commonsourceibias.t46 commonsourceibias.t47 gnd.t244 sky130_fd_pr__nfet_01v8 ad=1.155 pd=7.33 as=1.155 ps=7.33 w=7 l=1
X243 vdd.t218 a_n8300_8799.t78 CSoutput.t140 vdd.t217 sky130_fd_pr__pfet_01v8 ad=1.32 pd=8.33 as=1.32 ps=8.33 w=8 l=0.5
X244 gnd.t92 gnd.t89 gnd.t91 gnd.t90 sky130_fd_pr__nfet_01v8 ad=2.73 pd=14.78 as=0 ps=0 w=7 l=0.7
X245 gnd.t88 gnd.t86 plus.t4 gnd.t87 sky130_fd_pr__nfet_01v8 ad=0.165 pd=1.33 as=0.165 ps=1.33 w=1 l=0.5
X246 outputibias.t5 outputibias.t4 gnd.t255 gnd.t254 sky130_fd_pr__nfet_01v8 ad=2.34 pd=12.78 as=2.34 ps=12.78 w=6 l=2
X247 vdd.t216 a_n8300_8799.t79 CSoutput.t139 vdd.t215 sky130_fd_pr__pfet_01v8 ad=1.32 pd=8.33 as=1.32 ps=8.33 w=8 l=0.5