* NGSPICE file created from opamp540.ext - technology: sky130A

.subckt opamp540 gnd CSoutput output vdd plus minus commonsourceibias outputibias
+ diffpairibias
X0 gnd.t358 commonsourceibias.t14 commonsourceibias.t15 gnd.t280 sky130_fd_pr__nfet_01v8 ad=1.155 pd=7.33 as=1.155 ps=7.33 w=7 l=1
X1 CSoutput.t71 a_n6308_8799.t32 vdd.t229 vdd.t200 sky130_fd_pr__pfet_01v8 ad=1.32 pd=8.33 as=1.32 ps=8.33 w=8 l=0.5
X2 vdd.t92 vdd.t90 vdd.t91 vdd.t26 sky130_fd_pr__pfet_01v8 ad=3.12 pd=16.78 as=0 ps=0 w=8 l=0.5
X3 a_n1808_13878.t19 a_n1986_13878.t44 vdd.t9 vdd.t8 sky130_fd_pr__pfet_01v8 ad=1.485 pd=9.33 as=1.485 ps=9.33 w=9 l=0.5
X4 a_n1808_13878.t11 a_n1986_13878.t20 a_n1986_13878.t21 vdd.t97 sky130_fd_pr__pfet_01v8 ad=1.485 pd=9.33 as=1.485 ps=9.33 w=9 l=0.5
X5 CSoutput.t167 commonsourceibias.t64 gnd.t357 gnd.t247 sky130_fd_pr__nfet_01v8 ad=1.155 pd=7.33 as=2.73 ps=14.78 w=7 l=1
X6 CSoutput.t70 a_n6308_8799.t33 vdd.t228 vdd.t148 sky130_fd_pr__pfet_01v8 ad=1.32 pd=8.33 as=1.32 ps=8.33 w=8 l=0.5
X7 commonsourceibias.t13 commonsourceibias.t12 gnd.t356 gnd.t220 sky130_fd_pr__nfet_01v8 ad=1.155 pd=7.33 as=1.155 ps=7.33 w=7 l=1
X8 gnd.t355 commonsourceibias.t65 CSoutput.t166 gnd.t207 sky130_fd_pr__nfet_01v8 ad=1.155 pd=7.33 as=1.155 ps=7.33 w=7 l=1
X9 gnd.t354 commonsourceibias.t10 commonsourceibias.t11 gnd.t215 sky130_fd_pr__nfet_01v8 ad=1.155 pd=7.33 as=1.155 ps=7.33 w=7 l=1
X10 a_n3827_n3924.t21 diffpairibias.t20 gnd.t368 gnd.t367 sky130_fd_pr__nfet_01v8 ad=2.73 pd=14.78 as=2.73 ps=14.78 w=7 l=1
X11 CSoutput.t69 a_n6308_8799.t34 vdd.t227 vdd.t156 sky130_fd_pr__pfet_01v8 ad=1.32 pd=8.33 as=1.32 ps=8.33 w=8 l=0.5
X12 gnd.t353 commonsourceibias.t8 commonsourceibias.t9 gnd.t199 sky130_fd_pr__nfet_01v8 ad=1.155 pd=7.33 as=1.155 ps=7.33 w=7 l=1
X13 a_n1986_8322.t19 a_n1986_13878.t45 a_n6308_8799.t5 vdd.t10 sky130_fd_pr__pfet_01v8 ad=1.485 pd=9.33 as=1.485 ps=9.33 w=9 l=0.5
X14 commonsourceibias.t7 commonsourceibias.t6 gnd.t352 gnd.t237 sky130_fd_pr__nfet_01v8 ad=1.155 pd=7.33 as=1.155 ps=7.33 w=7 l=1
X15 gnd.t351 commonsourceibias.t66 CSoutput.t165 gnd.t273 sky130_fd_pr__nfet_01v8 ad=1.155 pd=7.33 as=1.155 ps=7.33 w=7 l=1
X16 gnd.t129 gnd.t127 plus.t4 gnd.t128 sky130_fd_pr__nfet_01v8 ad=0.39 pd=2.78 as=0.165 ps=1.33 w=1 l=0.5
X17 a_n6308_8799.t4 plus.t5 a_n3827_n3924.t23 gnd.t136 sky130_fd_pr__nfet_01v8 ad=1.155 pd=7.33 as=1.155 ps=7.33 w=7 l=0.5
X18 minus.t4 gnd.t133 gnd.t135 gnd.t134 sky130_fd_pr__nfet_01v8 ad=0.165 pd=1.33 as=0.165 ps=1.33 w=1 l=0.5
X19 gnd.t132 gnd.t130 gnd.t131 gnd.t52 sky130_fd_pr__nfet_01v8 ad=2.73 pd=14.78 as=0 ps=0 w=7 l=1
X20 gnd.t126 gnd.t123 gnd.t125 gnd.t124 sky130_fd_pr__nfet_01v8 ad=2.34 pd=12.78 as=0 ps=0 w=6 l=2
X21 vdd.t226 a_n6308_8799.t35 CSoutput.t68 vdd.t207 sky130_fd_pr__pfet_01v8 ad=1.32 pd=8.33 as=1.32 ps=8.33 w=8 l=0.5
X22 CSoutput.t67 a_n6308_8799.t36 vdd.t225 vdd.t152 sky130_fd_pr__pfet_01v8 ad=1.32 pd=8.33 as=1.32 ps=8.33 w=8 l=0.5
X23 commonsourceibias.t27 commonsourceibias.t26 gnd.t350 gnd.t278 sky130_fd_pr__nfet_01v8 ad=1.155 pd=7.33 as=1.155 ps=7.33 w=7 l=1
X24 vdd.t193 a_n6308_8799.t37 CSoutput.t66 vdd.t192 sky130_fd_pr__pfet_01v8 ad=1.32 pd=8.33 as=1.32 ps=8.33 w=8 l=0.5
X25 a_n6308_8799.t21 a_n1986_13878.t46 a_n1986_8322.t18 vdd.t124 sky130_fd_pr__pfet_01v8 ad=1.485 pd=9.33 as=3.51 ps=18.78 w=9 l=0.5
X26 CSoutput.t65 a_n6308_8799.t38 vdd.t224 vdd.t144 sky130_fd_pr__pfet_01v8 ad=1.32 pd=8.33 as=3.12 ps=16.78 w=8 l=0.5
X27 a_n6308_8799.t2 plus.t6 a_n3827_n3924.t2 gnd.t4 sky130_fd_pr__nfet_01v8 ad=1.155 pd=7.33 as=1.155 ps=7.33 w=7 l=0.5
X28 gnd.t349 commonsourceibias.t67 CSoutput.t164 gnd.t209 sky130_fd_pr__nfet_01v8 ad=1.155 pd=7.33 as=1.155 ps=7.33 w=7 l=1
X29 CSoutput.t163 commonsourceibias.t68 gnd.t348 gnd.t226 sky130_fd_pr__nfet_01v8 ad=1.155 pd=7.33 as=1.155 ps=7.33 w=7 l=1
X30 vdd.t89 vdd.t87 vdd.t88 vdd.t26 sky130_fd_pr__pfet_01v8 ad=3.12 pd=16.78 as=0 ps=0 w=8 l=0.5
X31 gnd.t347 commonsourceibias.t24 commonsourceibias.t25 gnd.t273 sky130_fd_pr__nfet_01v8 ad=1.155 pd=7.33 as=1.155 ps=7.33 w=7 l=1
X32 CSoutput.t168 a_n1986_8322.t20 sky130_fd_pr__cap_mim_m3_1 l=12 w=12
X33 CSoutput.t162 commonsourceibias.t69 gnd.t346 gnd.t285 sky130_fd_pr__nfet_01v8 ad=1.155 pd=7.33 as=1.155 ps=7.33 w=7 l=1
X34 CSoutput.t64 a_n6308_8799.t39 vdd.t223 vdd.t200 sky130_fd_pr__pfet_01v8 ad=1.32 pd=8.33 as=1.32 ps=8.33 w=8 l=0.5
X35 vdd.t86 vdd.t84 vdd.t85 vdd.t30 sky130_fd_pr__pfet_01v8 ad=3.12 pd=16.78 as=0 ps=0 w=8 l=0.5
X36 a_n3827_n3924.t20 diffpairibias.t21 gnd.t196 gnd.t195 sky130_fd_pr__nfet_01v8 ad=2.73 pd=14.78 as=2.73 ps=14.78 w=7 l=1
X37 a_n3827_n3924.t9 minus.t5 a_n1986_13878.t5 gnd.t11 sky130_fd_pr__nfet_01v8 ad=1.155 pd=7.33 as=1.155 ps=7.33 w=7 l=0.5
X38 CSoutput.t63 a_n6308_8799.t40 vdd.t191 vdd.t170 sky130_fd_pr__pfet_01v8 ad=1.32 pd=8.33 as=1.32 ps=8.33 w=8 l=0.5
X39 commonsourceibias.t23 commonsourceibias.t22 gnd.t345 gnd.t201 sky130_fd_pr__nfet_01v8 ad=1.155 pd=7.33 as=1.155 ps=7.33 w=7 l=1
X40 a_n3827_n3924.t48 plus.t7 a_n6308_8799.t29 gnd.t191 sky130_fd_pr__nfet_01v8 ad=1.155 pd=7.33 as=1.155 ps=7.33 w=7 l=0.5
X41 CSoutput.t161 commonsourceibias.t70 gnd.t344 gnd.t285 sky130_fd_pr__nfet_01v8 ad=1.155 pd=7.33 as=1.155 ps=7.33 w=7 l=1
X42 a_n1986_13878.t33 minus.t6 a_n3827_n3924.t27 gnd.t149 sky130_fd_pr__nfet_01v8 ad=1.155 pd=7.33 as=1.155 ps=7.33 w=7 l=0.5
X43 a_n3827_n3924.t31 plus.t8 a_n6308_8799.t15 gnd.t14 sky130_fd_pr__nfet_01v8 ad=1.155 pd=7.33 as=1.155 ps=7.33 w=7 l=0.5
X44 a_n3827_n3924.t40 minus.t7 a_n1986_13878.t40 gnd.t192 sky130_fd_pr__nfet_01v8 ad=1.155 pd=7.33 as=1.155 ps=7.33 w=7 l=0.5
X45 CSoutput.t62 a_n6308_8799.t41 vdd.t190 vdd.t156 sky130_fd_pr__pfet_01v8 ad=1.32 pd=8.33 as=1.32 ps=8.33 w=8 l=0.5
X46 gnd.t343 commonsourceibias.t20 commonsourceibias.t21 gnd.t263 sky130_fd_pr__nfet_01v8 ad=1.155 pd=7.33 as=1.155 ps=7.33 w=7 l=1
X47 CSoutput.t160 commonsourceibias.t71 gnd.t342 gnd.t213 sky130_fd_pr__nfet_01v8 ad=1.155 pd=7.33 as=2.73 ps=14.78 w=7 l=1
X48 vdd.t194 a_n6308_8799.t42 CSoutput.t61 vdd.t192 sky130_fd_pr__pfet_01v8 ad=1.32 pd=8.33 as=1.32 ps=8.33 w=8 l=0.5
X49 a_n1808_13878.t10 a_n1986_13878.t28 a_n1986_13878.t29 vdd.t93 sky130_fd_pr__pfet_01v8 ad=1.485 pd=9.33 as=3.51 ps=18.78 w=9 l=0.5
X50 CSoutput.t60 a_n6308_8799.t43 vdd.t222 vdd.t183 sky130_fd_pr__pfet_01v8 ad=1.32 pd=8.33 as=1.32 ps=8.33 w=8 l=0.5
X51 output.t3 outputibias.t8 gnd.t183 gnd.t182 sky130_fd_pr__nfet_01v8 ad=2.34 pd=12.78 as=2.34 ps=12.78 w=6 l=2
X52 a_n1986_13878.t23 a_n1986_13878.t22 a_n1808_13878.t9 vdd.t96 sky130_fd_pr__pfet_01v8 ad=1.485 pd=9.33 as=1.485 ps=9.33 w=9 l=0.5
X53 CSoutput.t169 a_n1986_8322.t21 sky130_fd_pr__cap_mim_m3_1 l=12 w=12
X54 a_n3827_n3924.t6 minus.t8 a_n1986_13878.t2 gnd.t2 sky130_fd_pr__nfet_01v8 ad=1.155 pd=7.33 as=1.155 ps=7.33 w=7 l=0.5
X55 vdd.t83 vdd.t81 vdd.t82 vdd.t57 sky130_fd_pr__pfet_01v8 ad=3.51 pd=18.78 as=0 ps=0 w=9 l=0.5
X56 vdd.t5 CSoutput.t170 output.t19 gnd.t137 sky130_fd_pr__nfet_01v8 ad=0.825 pd=5.33 as=0.825 ps=5.33 w=5 l=1
X57 diffpairibias.t19 diffpairibias.t18 gnd.t362 gnd.t361 sky130_fd_pr__nfet_01v8 ad=2.73 pd=14.78 as=2.73 ps=14.78 w=7 l=1
X58 CSoutput.t159 commonsourceibias.t72 gnd.t341 gnd.t245 sky130_fd_pr__nfet_01v8 ad=1.155 pd=7.33 as=1.155 ps=7.33 w=7 l=1
X59 CSoutput.t158 commonsourceibias.t73 gnd.t340 gnd.t292 sky130_fd_pr__nfet_01v8 ad=1.155 pd=7.33 as=1.155 ps=7.33 w=7 l=1
X60 gnd.t122 gnd.t120 gnd.t121 gnd.t41 sky130_fd_pr__nfet_01v8 ad=2.73 pd=14.78 as=0 ps=0 w=7 l=0.5
X61 CSoutput.t157 commonsourceibias.t74 gnd.t339 gnd.t267 sky130_fd_pr__nfet_01v8 ad=1.155 pd=7.33 as=1.155 ps=7.33 w=7 l=1
X62 commonsourceibias.t33 commonsourceibias.t32 gnd.t338 gnd.t247 sky130_fd_pr__nfet_01v8 ad=1.155 pd=7.33 as=2.73 ps=14.78 w=7 l=1
X63 gnd.t117 gnd.t115 gnd.t116 gnd.t25 sky130_fd_pr__nfet_01v8 ad=2.73 pd=14.78 as=0 ps=0 w=7 l=1
X64 gnd.t119 gnd.t118 plus.t3 gnd.t41 sky130_fd_pr__nfet_01v8 ad=0.165 pd=1.33 as=0.165 ps=1.33 w=1 l=0.5
X65 minus.t3 gnd.t112 gnd.t114 gnd.t113 sky130_fd_pr__nfet_01v8 ad=0.165 pd=1.33 as=0.165 ps=1.33 w=1 l=0.5
X66 vdd.t221 a_n6308_8799.t44 CSoutput.t59 vdd.t192 sky130_fd_pr__pfet_01v8 ad=1.32 pd=8.33 as=1.32 ps=8.33 w=8 l=0.5
X67 vdd.t220 a_n6308_8799.t45 CSoutput.t58 vdd.t186 sky130_fd_pr__pfet_01v8 ad=1.32 pd=8.33 as=1.32 ps=8.33 w=8 l=0.5
X68 diffpairibias.t17 diffpairibias.t16 gnd.t141 gnd.t140 sky130_fd_pr__nfet_01v8 ad=2.73 pd=14.78 as=2.73 ps=14.78 w=7 l=1
X69 CSoutput.t57 a_n6308_8799.t46 vdd.t196 vdd.t144 sky130_fd_pr__pfet_01v8 ad=1.32 pd=8.33 as=3.12 ps=16.78 w=8 l=0.5
X70 gnd.t111 gnd.t109 gnd.t110 gnd.t25 sky130_fd_pr__nfet_01v8 ad=2.73 pd=14.78 as=0 ps=0 w=7 l=1
X71 vdd.t195 a_n6308_8799.t47 CSoutput.t56 vdd.t146 sky130_fd_pr__pfet_01v8 ad=1.32 pd=8.33 as=1.32 ps=8.33 w=8 l=0.5
X72 CSoutput.t156 commonsourceibias.t75 gnd.t337 gnd.t267 sky130_fd_pr__nfet_01v8 ad=1.155 pd=7.33 as=1.155 ps=7.33 w=7 l=1
X73 CSoutput.t55 a_n6308_8799.t48 vdd.t198 vdd.t197 sky130_fd_pr__pfet_01v8 ad=1.32 pd=8.33 as=1.32 ps=8.33 w=8 l=0.5
X74 CSoutput.t54 a_n6308_8799.t49 vdd.t219 vdd.t170 sky130_fd_pr__pfet_01v8 ad=1.32 pd=8.33 as=1.32 ps=8.33 w=8 l=0.5
X75 CSoutput.t53 a_n6308_8799.t50 vdd.t218 vdd.t197 sky130_fd_pr__pfet_01v8 ad=1.32 pd=8.33 as=1.32 ps=8.33 w=8 l=0.5
X76 vdd.t217 a_n6308_8799.t51 CSoutput.t52 vdd.t209 sky130_fd_pr__pfet_01v8 ad=1.32 pd=8.33 as=1.32 ps=8.33 w=8 l=0.5
X77 gnd.t336 commonsourceibias.t76 CSoutput.t155 gnd.t242 sky130_fd_pr__nfet_01v8 ad=1.155 pd=7.33 as=1.155 ps=7.33 w=7 l=1
X78 gnd.t108 gnd.t105 gnd.t107 gnd.t106 sky130_fd_pr__nfet_01v8 ad=2.34 pd=12.78 as=0 ps=0 w=6 l=2
X79 CSoutput.t154 commonsourceibias.t77 gnd.t335 gnd.t260 sky130_fd_pr__nfet_01v8 ad=1.155 pd=7.33 as=1.155 ps=7.33 w=7 l=1
X80 a_n6308_8799.t3 plus.t9 a_n3827_n3924.t3 gnd.t5 sky130_fd_pr__nfet_01v8 ad=1.155 pd=7.33 as=1.155 ps=7.33 w=7 l=0.5
X81 gnd.t334 commonsourceibias.t78 CSoutput.t153 gnd.t222 sky130_fd_pr__nfet_01v8 ad=2.73 pd=14.78 as=1.155 ps=7.33 w=7 l=1
X82 gnd.t104 gnd.t102 gnd.t103 gnd.t52 sky130_fd_pr__nfet_01v8 ad=2.73 pd=14.78 as=0 ps=0 w=7 l=1
X83 a_n3827_n3924.t19 diffpairibias.t22 gnd.t147 gnd.t146 sky130_fd_pr__nfet_01v8 ad=2.73 pd=14.78 as=2.73 ps=14.78 w=7 l=1
X84 a_n3827_n3924.t37 minus.t9 a_n1986_13878.t37 gnd.t159 sky130_fd_pr__nfet_01v8 ad=1.155 pd=7.33 as=1.155 ps=7.33 w=7 l=0.5
X85 CSoutput.t152 commonsourceibias.t79 gnd.t333 gnd.t205 sky130_fd_pr__nfet_01v8 ad=1.155 pd=7.33 as=1.155 ps=7.33 w=7 l=1
X86 a_n1986_13878.t19 a_n1986_13878.t18 a_n1808_13878.t8 vdd.t10 sky130_fd_pr__pfet_01v8 ad=1.485 pd=9.33 as=1.485 ps=9.33 w=9 l=0.5
X87 vdd.t216 a_n6308_8799.t52 CSoutput.t51 vdd.t173 sky130_fd_pr__pfet_01v8 ad=1.32 pd=8.33 as=1.32 ps=8.33 w=8 l=0.5
X88 a_n6308_8799.t22 a_n1986_13878.t47 a_n1986_8322.t17 vdd.t125 sky130_fd_pr__pfet_01v8 ad=1.485 pd=9.33 as=1.485 ps=9.33 w=9 l=0.5
X89 vdd.t215 a_n6308_8799.t53 CSoutput.t50 vdd.t207 sky130_fd_pr__pfet_01v8 ad=1.32 pd=8.33 as=1.32 ps=8.33 w=8 l=0.5
X90 a_n1986_13878.t27 a_n1986_13878.t26 a_n1808_13878.t7 vdd.t3 sky130_fd_pr__pfet_01v8 ad=3.51 pd=18.78 as=1.485 ps=9.33 w=9 l=0.5
X91 a_n1986_13878.t41 minus.t10 a_n3827_n3924.t43 gnd.t181 sky130_fd_pr__nfet_01v8 ad=1.155 pd=7.33 as=1.155 ps=7.33 w=7 l=0.5
X92 vdd.t214 a_n6308_8799.t54 CSoutput.t49 vdd.t209 sky130_fd_pr__pfet_01v8 ad=1.32 pd=8.33 as=1.32 ps=8.33 w=8 l=0.5
X93 a_n3827_n3924.t25 plus.t10 a_n6308_8799.t9 gnd.t148 sky130_fd_pr__nfet_01v8 ad=1.155 pd=7.33 as=1.155 ps=7.33 w=7 l=0.5
X94 outputibias.t7 outputibias.t6 gnd.t370 gnd.t369 sky130_fd_pr__nfet_01v8 ad=2.34 pd=12.78 as=2.34 ps=12.78 w=6 l=2
X95 commonsourceibias.t31 commonsourceibias.t30 gnd.t332 gnd.t226 sky130_fd_pr__nfet_01v8 ad=1.155 pd=7.33 as=1.155 ps=7.33 w=7 l=1
X96 gnd.t331 commonsourceibias.t80 CSoutput.t151 gnd.t239 sky130_fd_pr__nfet_01v8 ad=1.155 pd=7.33 as=1.155 ps=7.33 w=7 l=1
X97 gnd.t79 gnd.t77 gnd.t78 gnd.t29 sky130_fd_pr__nfet_01v8 ad=2.73 pd=14.78 as=0 ps=0 w=7 l=1
X98 CSoutput.t150 commonsourceibias.t81 gnd.t330 gnd.t220 sky130_fd_pr__nfet_01v8 ad=1.155 pd=7.33 as=1.155 ps=7.33 w=7 l=1
X99 gnd.t329 commonsourceibias.t28 commonsourceibias.t29 gnd.t224 sky130_fd_pr__nfet_01v8 ad=1.155 pd=7.33 as=1.155 ps=7.33 w=7 l=1
X100 vdd.t213 a_n6308_8799.t55 CSoutput.t48 vdd.t163 sky130_fd_pr__pfet_01v8 ad=3.12 pd=16.78 as=1.32 ps=8.33 w=8 l=0.5
X101 CSoutput.t149 commonsourceibias.t82 gnd.t328 gnd.t285 sky130_fd_pr__nfet_01v8 ad=1.155 pd=7.33 as=1.155 ps=7.33 w=7 l=1
X102 CSoutput.t47 a_n6308_8799.t56 vdd.t199 vdd.t138 sky130_fd_pr__pfet_01v8 ad=1.32 pd=8.33 as=1.32 ps=8.33 w=8 l=0.5
X103 diffpairibias.t15 diffpairibias.t14 gnd.t167 gnd.t166 sky130_fd_pr__nfet_01v8 ad=2.73 pd=14.78 as=2.73 ps=14.78 w=7 l=1
X104 a_n3827_n3924.t33 minus.t11 a_n1986_13878.t35 gnd.t172 sky130_fd_pr__nfet_01v8 ad=2.73 pd=14.78 as=1.155 ps=7.33 w=7 l=0.5
X105 vdd.t80 vdd.t78 vdd.t79 vdd.t65 sky130_fd_pr__pfet_01v8 ad=3.51 pd=18.78 as=0 ps=0 w=9 l=0.5
X106 vdd.t212 a_n6308_8799.t57 CSoutput.t46 vdd.t186 sky130_fd_pr__pfet_01v8 ad=1.32 pd=8.33 as=1.32 ps=8.33 w=8 l=0.5
X107 vdd.t77 vdd.t74 vdd.t76 vdd.t75 sky130_fd_pr__pfet_01v8 ad=3.51 pd=18.78 as=0 ps=0 w=9 l=0.5
X108 gnd.t327 commonsourceibias.t83 CSoutput.t148 gnd.t230 sky130_fd_pr__nfet_01v8 ad=2.73 pd=14.78 as=1.155 ps=7.33 w=7 l=1
X109 vdd.t73 vdd.t71 vdd.t72 vdd.t18 sky130_fd_pr__pfet_01v8 ad=3.51 pd=18.78 as=0 ps=0 w=9 l=0.5
X110 vdd.t70 vdd.t68 vdd.t69 vdd.t61 sky130_fd_pr__pfet_01v8 ad=3.51 pd=18.78 as=0 ps=0 w=9 l=0.5
X111 vdd.t102 a_n1986_13878.t48 a_n1986_8322.t7 vdd.t101 sky130_fd_pr__pfet_01v8 ad=1.485 pd=9.33 as=1.485 ps=9.33 w=9 l=0.5
X112 gnd.t326 commonsourceibias.t38 commonsourceibias.t39 gnd.t217 sky130_fd_pr__nfet_01v8 ad=1.155 pd=7.33 as=1.155 ps=7.33 w=7 l=1
X113 CSoutput.t147 commonsourceibias.t84 gnd.t325 gnd.t233 sky130_fd_pr__nfet_01v8 ad=1.155 pd=7.33 as=1.155 ps=7.33 w=7 l=1
X114 output.t18 CSoutput.t171 vdd.t6 gnd.t138 sky130_fd_pr__nfet_01v8 ad=0.825 pd=5.33 as=0.825 ps=5.33 w=5 l=1
X115 CSoutput.t146 commonsourceibias.t85 gnd.t324 gnd.t278 sky130_fd_pr__nfet_01v8 ad=1.155 pd=7.33 as=1.155 ps=7.33 w=7 l=1
X116 a_n1986_8322.t6 a_n1986_13878.t49 vdd.t104 vdd.t103 sky130_fd_pr__pfet_01v8 ad=1.485 pd=9.33 as=1.485 ps=9.33 w=9 l=0.5
X117 a_n3827_n3924.t18 diffpairibias.t23 gnd.t1 gnd.t0 sky130_fd_pr__nfet_01v8 ad=2.73 pd=14.78 as=2.73 ps=14.78 w=7 l=1
X118 CSoutput.t45 a_n6308_8799.t58 vdd.t211 vdd.t197 sky130_fd_pr__pfet_01v8 ad=1.32 pd=8.33 as=1.32 ps=8.33 w=8 l=0.5
X119 gnd.t323 commonsourceibias.t86 CSoutput.t145 gnd.t280 sky130_fd_pr__nfet_01v8 ad=1.155 pd=7.33 as=1.155 ps=7.33 w=7 l=1
X120 a_n1986_13878.t4 minus.t12 a_n3827_n3924.t8 gnd.t3 sky130_fd_pr__nfet_01v8 ad=1.155 pd=7.33 as=1.155 ps=7.33 w=7 l=0.5
X121 vdd.t210 a_n6308_8799.t59 CSoutput.t44 vdd.t209 sky130_fd_pr__pfet_01v8 ad=1.32 pd=8.33 as=1.32 ps=8.33 w=8 l=0.5
X122 commonsourceibias.t37 commonsourceibias.t36 gnd.t322 gnd.t213 sky130_fd_pr__nfet_01v8 ad=1.155 pd=7.33 as=2.73 ps=14.78 w=7 l=1
X123 a_n3827_n3924.t46 plus.t11 a_n6308_8799.t27 gnd.t173 sky130_fd_pr__nfet_01v8 ad=1.155 pd=7.33 as=1.155 ps=7.33 w=7 l=0.5
X124 vdd.t106 a_n1986_13878.t50 a_n1808_13878.t18 vdd.t105 sky130_fd_pr__pfet_01v8 ad=1.485 pd=9.33 as=1.485 ps=9.33 w=9 l=0.5
X125 gnd.t321 commonsourceibias.t87 CSoutput.t144 gnd.t256 sky130_fd_pr__nfet_01v8 ad=1.155 pd=7.33 as=1.155 ps=7.33 w=7 l=1
X126 gnd.t320 commonsourceibias.t34 commonsourceibias.t35 gnd.t209 sky130_fd_pr__nfet_01v8 ad=1.155 pd=7.33 as=1.155 ps=7.33 w=7 l=1
X127 output.t17 CSoutput.t172 vdd.t7 gnd.t139 sky130_fd_pr__nfet_01v8 ad=0.825 pd=5.33 as=0.825 ps=5.33 w=5 l=1
X128 vdd.t67 vdd.t64 vdd.t66 vdd.t65 sky130_fd_pr__pfet_01v8 ad=3.51 pd=18.78 as=0 ps=0 w=9 l=0.5
X129 CSoutput.t143 commonsourceibias.t88 gnd.t319 gnd.t245 sky130_fd_pr__nfet_01v8 ad=1.155 pd=7.33 as=1.155 ps=7.33 w=7 l=1
X130 gnd.t318 commonsourceibias.t89 CSoutput.t142 gnd.t207 sky130_fd_pr__nfet_01v8 ad=1.155 pd=7.33 as=1.155 ps=7.33 w=7 l=1
X131 vdd.t208 a_n6308_8799.t60 CSoutput.t43 vdd.t207 sky130_fd_pr__pfet_01v8 ad=1.32 pd=8.33 as=1.32 ps=8.33 w=8 l=0.5
X132 vdd.t63 vdd.t60 vdd.t62 vdd.t61 sky130_fd_pr__pfet_01v8 ad=3.51 pd=18.78 as=0 ps=0 w=9 l=0.5
X133 CSoutput.t141 commonsourceibias.t90 gnd.t317 gnd.t260 sky130_fd_pr__nfet_01v8 ad=1.155 pd=7.33 as=1.155 ps=7.33 w=7 l=1
X134 a_n6308_8799.t8 plus.t12 a_n3827_n3924.t24 gnd.t16 sky130_fd_pr__nfet_01v8 ad=1.155 pd=7.33 as=2.73 ps=14.78 w=7 l=0.5
X135 commonsourceibias.t43 commonsourceibias.t42 gnd.t316 gnd.t203 sky130_fd_pr__nfet_01v8 ad=1.155 pd=7.33 as=1.155 ps=7.33 w=7 l=1
X136 vdd.t59 vdd.t56 vdd.t58 vdd.t57 sky130_fd_pr__pfet_01v8 ad=3.51 pd=18.78 as=0 ps=0 w=9 l=0.5
X137 a_n1986_8322.t5 a_n1986_13878.t51 vdd.t108 vdd.t107 sky130_fd_pr__pfet_01v8 ad=3.51 pd=18.78 as=1.485 ps=9.33 w=9 l=0.5
X138 gnd.t315 commonsourceibias.t91 CSoutput.t140 gnd.t228 sky130_fd_pr__nfet_01v8 ad=1.155 pd=7.33 as=1.155 ps=7.33 w=7 l=1
X139 a_n1986_13878.t31 minus.t13 a_n3827_n3924.t11 gnd.t15 sky130_fd_pr__nfet_01v8 ad=1.155 pd=7.33 as=1.155 ps=7.33 w=7 l=0.5
X140 a_n6308_8799.t23 a_n1986_13878.t52 a_n1986_8322.t16 vdd.t126 sky130_fd_pr__pfet_01v8 ad=1.485 pd=9.33 as=1.485 ps=9.33 w=9 l=0.5
X141 gnd.t101 gnd.t99 gnd.t100 gnd.t37 sky130_fd_pr__nfet_01v8 ad=2.73 pd=14.78 as=0 ps=0 w=7 l=1
X142 diffpairibias.t13 diffpairibias.t12 gnd.t143 gnd.t142 sky130_fd_pr__nfet_01v8 ad=2.73 pd=14.78 as=2.73 ps=14.78 w=7 l=1
X143 a_n1986_13878.t9 a_n1986_13878.t8 a_n1808_13878.t6 vdd.t98 sky130_fd_pr__pfet_01v8 ad=1.485 pd=9.33 as=1.485 ps=9.33 w=9 l=0.5
X144 vdd.t206 a_n6308_8799.t61 CSoutput.t42 vdd.t163 sky130_fd_pr__pfet_01v8 ad=3.12 pd=16.78 as=1.32 ps=8.33 w=8 l=0.5
X145 a_n6308_8799.t24 a_n1986_13878.t53 a_n1986_8322.t15 vdd.t97 sky130_fd_pr__pfet_01v8 ad=1.485 pd=9.33 as=1.485 ps=9.33 w=9 l=0.5
X146 CSoutput.t41 a_n6308_8799.t62 vdd.t205 vdd.t138 sky130_fd_pr__pfet_01v8 ad=1.32 pd=8.33 as=1.32 ps=8.33 w=8 l=0.5
X147 gnd.t314 commonsourceibias.t40 commonsourceibias.t41 gnd.t207 sky130_fd_pr__nfet_01v8 ad=1.155 pd=7.33 as=1.155 ps=7.33 w=7 l=1
X148 a_n1808_13878.t5 a_n1986_13878.t12 a_n1986_13878.t13 vdd.t125 sky130_fd_pr__pfet_01v8 ad=1.485 pd=9.33 as=1.485 ps=9.33 w=9 l=0.5
X149 plus.t2 gnd.t96 gnd.t98 gnd.t97 sky130_fd_pr__nfet_01v8 ad=0.165 pd=1.33 as=0.165 ps=1.33 w=1 l=0.5
X150 gnd.t313 commonsourceibias.t92 CSoutput.t139 gnd.t235 sky130_fd_pr__nfet_01v8 ad=1.155 pd=7.33 as=1.155 ps=7.33 w=7 l=1
X151 output.t16 CSoutput.t173 vdd.t119 gnd.t174 sky130_fd_pr__nfet_01v8 ad=0.825 pd=5.33 as=0.825 ps=5.33 w=5 l=1
X152 gnd.t312 commonsourceibias.t93 CSoutput.t138 gnd.t217 sky130_fd_pr__nfet_01v8 ad=1.155 pd=7.33 as=1.155 ps=7.33 w=7 l=1
X153 gnd.t95 gnd.t93 minus.t2 gnd.t94 sky130_fd_pr__nfet_01v8 ad=0.39 pd=2.78 as=0.165 ps=1.33 w=1 l=0.5
X154 a_n1986_13878.t3 minus.t14 a_n3827_n3924.t7 gnd.t10 sky130_fd_pr__nfet_01v8 ad=1.155 pd=7.33 as=1.155 ps=7.33 w=7 l=0.5
X155 vdd.t128 a_n1986_13878.t54 a_n1986_8322.t4 vdd.t127 sky130_fd_pr__pfet_01v8 ad=1.485 pd=9.33 as=3.51 ps=18.78 w=9 l=0.5
X156 gnd.t92 gnd.t90 gnd.t91 gnd.t37 sky130_fd_pr__nfet_01v8 ad=2.73 pd=14.78 as=0 ps=0 w=7 l=1
X157 output.t2 outputibias.t9 gnd.t194 gnd.t193 sky130_fd_pr__nfet_01v8 ad=2.34 pd=12.78 as=2.34 ps=12.78 w=6 l=2
X158 gnd.t89 gnd.t86 gnd.t88 gnd.t87 sky130_fd_pr__nfet_01v8 ad=1.95 pd=10.78 as=0 ps=0 w=5 l=1
X159 gnd.t85 gnd.t83 gnd.t84 gnd.t52 sky130_fd_pr__nfet_01v8 ad=2.73 pd=14.78 as=0 ps=0 w=7 l=1
X160 outputibias.t5 outputibias.t4 gnd.t178 gnd.t177 sky130_fd_pr__nfet_01v8 ad=2.34 pd=12.78 as=2.34 ps=12.78 w=6 l=2
X161 vdd.t120 CSoutput.t174 output.t15 gnd.t175 sky130_fd_pr__nfet_01v8 ad=0.825 pd=5.33 as=0.825 ps=5.33 w=5 l=1
X162 CSoutput.t40 a_n6308_8799.t63 vdd.t204 vdd.t183 sky130_fd_pr__pfet_01v8 ad=1.32 pd=8.33 as=1.32 ps=8.33 w=8 l=0.5
X163 CSoutput.t137 commonsourceibias.t94 gnd.t311 gnd.t205 sky130_fd_pr__nfet_01v8 ad=1.155 pd=7.33 as=1.155 ps=7.33 w=7 l=1
X164 vdd.t202 a_n6308_8799.t64 CSoutput.t39 vdd.t140 sky130_fd_pr__pfet_01v8 ad=3.12 pd=16.78 as=1.32 ps=8.33 w=8 l=0.5
X165 gnd.t310 commonsourceibias.t95 CSoutput.t136 gnd.t242 sky130_fd_pr__nfet_01v8 ad=1.155 pd=7.33 as=1.155 ps=7.33 w=7 l=1
X166 gnd.t309 commonsourceibias.t96 CSoutput.t135 gnd.t239 sky130_fd_pr__nfet_01v8 ad=1.155 pd=7.33 as=1.155 ps=7.33 w=7 l=1
X167 a_n3827_n3924.t17 diffpairibias.t24 gnd.t161 gnd.t160 sky130_fd_pr__nfet_01v8 ad=2.73 pd=14.78 as=2.73 ps=14.78 w=7 l=1
X168 a_n3827_n3924.t16 diffpairibias.t25 gnd.t158 gnd.t157 sky130_fd_pr__nfet_01v8 ad=2.73 pd=14.78 as=2.73 ps=14.78 w=7 l=1
X169 outputibias.t3 outputibias.t2 gnd.t180 gnd.t179 sky130_fd_pr__nfet_01v8 ad=2.34 pd=12.78 as=2.34 ps=12.78 w=6 l=2
X170 a_n1986_13878.t42 minus.t15 a_n3827_n3924.t44 gnd.t136 sky130_fd_pr__nfet_01v8 ad=1.155 pd=7.33 as=1.155 ps=7.33 w=7 l=0.5
X171 vdd.t203 a_n6308_8799.t65 CSoutput.t38 vdd.t168 sky130_fd_pr__pfet_01v8 ad=1.32 pd=8.33 as=1.32 ps=8.33 w=8 l=0.5
X172 gnd.t82 gnd.t80 gnd.t81 gnd.t29 sky130_fd_pr__nfet_01v8 ad=2.73 pd=14.78 as=0 ps=0 w=7 l=1
X173 gnd.t76 gnd.t74 minus.t1 gnd.t75 sky130_fd_pr__nfet_01v8 ad=0.165 pd=1.33 as=0.39 ps=2.78 w=1 l=0.5
X174 gnd.t73 gnd.t71 gnd.t72 gnd.t29 sky130_fd_pr__nfet_01v8 ad=2.73 pd=14.78 as=0 ps=0 w=7 l=1
X175 gnd.t70 gnd.t68 gnd.t69 gnd.t21 sky130_fd_pr__nfet_01v8 ad=2.73 pd=14.78 as=0 ps=0 w=7 l=0.5
X176 CSoutput.t37 a_n6308_8799.t66 vdd.t201 vdd.t200 sky130_fd_pr__pfet_01v8 ad=1.32 pd=8.33 as=1.32 ps=8.33 w=8 l=0.5
X177 vdd.t121 CSoutput.t175 output.t14 gnd.t176 sky130_fd_pr__nfet_01v8 ad=0.825 pd=5.33 as=0.825 ps=5.33 w=5 l=1
X178 a_n1986_13878.t43 minus.t16 a_n3827_n3924.t45 gnd.t4 sky130_fd_pr__nfet_01v8 ad=1.155 pd=7.33 as=1.155 ps=7.33 w=7 l=0.5
X179 CSoutput.t36 a_n6308_8799.t67 vdd.t189 vdd.t136 sky130_fd_pr__pfet_01v8 ad=1.32 pd=8.33 as=1.32 ps=8.33 w=8 l=0.5
X180 CSoutput.t134 commonsourceibias.t97 gnd.t308 gnd.t292 sky130_fd_pr__nfet_01v8 ad=1.155 pd=7.33 as=1.155 ps=7.33 w=7 l=1
X181 output.t13 CSoutput.t176 vdd.t99 gnd.t153 sky130_fd_pr__nfet_01v8 ad=0.825 pd=5.33 as=0.825 ps=5.33 w=5 l=1
X182 gnd.t67 gnd.t65 gnd.t66 gnd.t25 sky130_fd_pr__nfet_01v8 ad=2.73 pd=14.78 as=0 ps=0 w=7 l=1
X183 gnd.t307 commonsourceibias.t98 CSoutput.t133 gnd.t256 sky130_fd_pr__nfet_01v8 ad=1.155 pd=7.33 as=1.155 ps=7.33 w=7 l=1
X184 diffpairibias.t11 diffpairibias.t10 gnd.t366 gnd.t365 sky130_fd_pr__nfet_01v8 ad=2.73 pd=14.78 as=2.73 ps=14.78 w=7 l=1
X185 a_n1808_13878.t17 a_n1986_13878.t55 vdd.t130 vdd.t129 sky130_fd_pr__pfet_01v8 ad=1.485 pd=9.33 as=1.485 ps=9.33 w=9 l=0.5
X186 vdd.t112 a_n1986_13878.t56 a_n1808_13878.t16 vdd.t111 sky130_fd_pr__pfet_01v8 ad=1.485 pd=9.33 as=1.485 ps=9.33 w=9 l=0.5
X187 vdd.t55 vdd.t53 vdd.t54 vdd.t37 sky130_fd_pr__pfet_01v8 ad=3.12 pd=16.78 as=0 ps=0 w=8 l=0.5
X188 gnd.t306 commonsourceibias.t99 CSoutput.t132 gnd.t273 sky130_fd_pr__nfet_01v8 ad=1.155 pd=7.33 as=1.155 ps=7.33 w=7 l=1
X189 a_n3827_n3924.t42 plus.t13 a_n6308_8799.t26 gnd.t11 sky130_fd_pr__nfet_01v8 ad=1.155 pd=7.33 as=1.155 ps=7.33 w=7 l=0.5
X190 CSoutput.t131 commonsourceibias.t100 gnd.t305 gnd.t213 sky130_fd_pr__nfet_01v8 ad=1.155 pd=7.33 as=2.73 ps=14.78 w=7 l=1
X191 output.t12 CSoutput.t177 vdd.t100 gnd.t154 sky130_fd_pr__nfet_01v8 ad=0.825 pd=5.33 as=0.825 ps=5.33 w=5 l=1
X192 a_n3827_n3924.t10 minus.t17 a_n1986_13878.t30 gnd.t14 sky130_fd_pr__nfet_01v8 ad=1.155 pd=7.33 as=1.155 ps=7.33 w=7 l=0.5
X193 diffpairibias.t9 diffpairibias.t8 gnd.t360 gnd.t359 sky130_fd_pr__nfet_01v8 ad=2.73 pd=14.78 as=2.73 ps=14.78 w=7 l=1
X194 a_n3827_n3924.t47 plus.t14 a_n6308_8799.t28 gnd.t192 sky130_fd_pr__nfet_01v8 ad=1.155 pd=7.33 as=1.155 ps=7.33 w=7 l=0.5
X195 gnd.t304 commonsourceibias.t101 CSoutput.t130 gnd.t235 sky130_fd_pr__nfet_01v8 ad=1.155 pd=7.33 as=1.155 ps=7.33 w=7 l=1
X196 CSoutput.t35 a_n6308_8799.t68 vdd.t184 vdd.t183 sky130_fd_pr__pfet_01v8 ad=1.32 pd=8.33 as=1.32 ps=8.33 w=8 l=0.5
X197 a_n3827_n3924.t4 minus.t18 a_n1986_13878.t0 gnd.t9 sky130_fd_pr__nfet_01v8 ad=2.73 pd=14.78 as=1.155 ps=7.33 w=7 l=0.5
X198 vdd.t188 a_n6308_8799.t69 CSoutput.t34 vdd.t140 sky130_fd_pr__pfet_01v8 ad=3.12 pd=16.78 as=1.32 ps=8.33 w=8 l=0.5
X199 a_n6308_8799.t13 plus.t15 a_n3827_n3924.t29 gnd.t150 sky130_fd_pr__nfet_01v8 ad=1.155 pd=7.33 as=2.73 ps=14.78 w=7 l=0.5
X200 commonsourceibias.t49 commonsourceibias.t48 gnd.t303 gnd.t292 sky130_fd_pr__nfet_01v8 ad=1.155 pd=7.33 as=1.155 ps=7.33 w=7 l=1
X201 a_n1986_8322.t14 a_n1986_13878.t57 a_n6308_8799.t17 vdd.t4 sky130_fd_pr__pfet_01v8 ad=1.485 pd=9.33 as=1.485 ps=9.33 w=9 l=0.5
X202 outputibias.t1 outputibias.t0 gnd.t185 gnd.t184 sky130_fd_pr__nfet_01v8 ad=2.34 pd=12.78 as=2.34 ps=12.78 w=6 l=2
X203 diffpairibias.t7 diffpairibias.t6 gnd.t156 gnd.t155 sky130_fd_pr__nfet_01v8 ad=2.73 pd=14.78 as=2.73 ps=14.78 w=7 l=1
X204 CSoutput.t33 a_n6308_8799.t70 vdd.t185 vdd.t158 sky130_fd_pr__pfet_01v8 ad=1.32 pd=8.33 as=1.32 ps=8.33 w=8 l=0.5
X205 vdd.t187 a_n6308_8799.t71 CSoutput.t32 vdd.t186 sky130_fd_pr__pfet_01v8 ad=1.32 pd=8.33 as=1.32 ps=8.33 w=8 l=0.5
X206 vdd.t114 a_n1986_13878.t58 a_n1986_8322.t3 vdd.t113 sky130_fd_pr__pfet_01v8 ad=1.485 pd=9.33 as=3.51 ps=18.78 w=9 l=0.5
X207 vdd.t182 a_n6308_8799.t72 CSoutput.t31 vdd.t168 sky130_fd_pr__pfet_01v8 ad=1.32 pd=8.33 as=1.32 ps=8.33 w=8 l=0.5
X208 output.t1 outputibias.t10 gnd.t152 gnd.t151 sky130_fd_pr__nfet_01v8 ad=2.34 pd=12.78 as=2.34 ps=12.78 w=6 l=2
X209 CSoutput.t129 commonsourceibias.t102 gnd.t302 gnd.t211 sky130_fd_pr__nfet_01v8 ad=1.155 pd=7.33 as=1.155 ps=7.33 w=7 l=1
X210 CSoutput.t178 a_n1986_8322.t20 sky130_fd_pr__cap_mim_m3_1 l=12 w=12
X211 commonsourceibias.t47 commonsourceibias.t46 gnd.t301 gnd.t267 sky130_fd_pr__nfet_01v8 ad=1.155 pd=7.33 as=1.155 ps=7.33 w=7 l=1
X212 gnd.t64 gnd.t61 gnd.t63 gnd.t62 sky130_fd_pr__nfet_01v8 ad=2.73 pd=14.78 as=0 ps=0 w=7 l=1
X213 a_n1808_13878.t15 a_n1986_13878.t59 vdd.t116 vdd.t115 sky130_fd_pr__pfet_01v8 ad=3.51 pd=18.78 as=1.485 ps=9.33 w=9 l=0.5
X214 vdd.t132 CSoutput.t179 output.t11 gnd.t189 sky130_fd_pr__nfet_01v8 ad=0.825 pd=5.33 as=0.825 ps=5.33 w=5 l=1
X215 CSoutput.t128 commonsourceibias.t103 gnd.t300 gnd.t211 sky130_fd_pr__nfet_01v8 ad=1.155 pd=7.33 as=1.155 ps=7.33 w=7 l=1
X216 plus.t1 gnd.t58 gnd.t60 gnd.t59 sky130_fd_pr__nfet_01v8 ad=0.165 pd=1.33 as=0.165 ps=1.33 w=1 l=0.5
X217 gnd.t299 commonsourceibias.t104 CSoutput.t127 gnd.t280 sky130_fd_pr__nfet_01v8 ad=1.155 pd=7.33 as=1.155 ps=7.33 w=7 l=1
X218 vdd.t52 vdd.t50 vdd.t51 vdd.t22 sky130_fd_pr__pfet_01v8 ad=3.12 pd=16.78 as=0 ps=0 w=8 l=0.5
X219 vdd.t181 a_n6308_8799.t73 CSoutput.t30 vdd.t173 sky130_fd_pr__pfet_01v8 ad=1.32 pd=8.33 as=1.32 ps=8.33 w=8 l=0.5
X220 CSoutput.t180 a_n1986_8322.t21 sky130_fd_pr__cap_mim_m3_1 l=12 w=12
X221 CSoutput.t29 a_n6308_8799.t74 vdd.t180 vdd.t136 sky130_fd_pr__pfet_01v8 ad=1.32 pd=8.33 as=1.32 ps=8.33 w=8 l=0.5
X222 gnd.t298 commonsourceibias.t44 commonsourceibias.t45 gnd.t222 sky130_fd_pr__nfet_01v8 ad=2.73 pd=14.78 as=1.155 ps=7.33 w=7 l=1
X223 CSoutput.t28 a_n6308_8799.t75 vdd.t179 vdd.t152 sky130_fd_pr__pfet_01v8 ad=1.32 pd=8.33 as=1.32 ps=8.33 w=8 l=0.5
X224 gnd.t297 commonsourceibias.t105 CSoutput.t126 gnd.t242 sky130_fd_pr__nfet_01v8 ad=1.155 pd=7.33 as=1.155 ps=7.33 w=7 l=1
X225 CSoutput.t125 commonsourceibias.t106 gnd.t296 gnd.t220 sky130_fd_pr__nfet_01v8 ad=1.155 pd=7.33 as=1.155 ps=7.33 w=7 l=1
X226 gnd.t57 gnd.t55 minus.t0 gnd.t56 sky130_fd_pr__nfet_01v8 ad=0.165 pd=1.33 as=0.165 ps=1.33 w=1 l=0.5
X227 gnd.t54 gnd.t51 gnd.t53 gnd.t52 sky130_fd_pr__nfet_01v8 ad=2.73 pd=14.78 as=0 ps=0 w=7 l=1
X228 CSoutput.t124 commonsourceibias.t107 gnd.t295 gnd.t278 sky130_fd_pr__nfet_01v8 ad=1.155 pd=7.33 as=1.155 ps=7.33 w=7 l=1
X229 gnd.t294 commonsourceibias.t108 CSoutput.t123 gnd.t217 sky130_fd_pr__nfet_01v8 ad=1.155 pd=7.33 as=1.155 ps=7.33 w=7 l=1
X230 CSoutput.t122 commonsourceibias.t109 gnd.t293 gnd.t292 sky130_fd_pr__nfet_01v8 ad=1.155 pd=7.33 as=1.155 ps=7.33 w=7 l=1
X231 vdd.t49 vdd.t47 vdd.t48 vdd.t37 sky130_fd_pr__pfet_01v8 ad=3.12 pd=16.78 as=0 ps=0 w=8 l=0.5
X232 a_n3827_n3924.t15 diffpairibias.t26 gnd.t171 gnd.t170 sky130_fd_pr__nfet_01v8 ad=2.73 pd=14.78 as=2.73 ps=14.78 w=7 l=1
X233 gnd.t291 commonsourceibias.t110 CSoutput.t121 gnd.t215 sky130_fd_pr__nfet_01v8 ad=1.155 pd=7.33 as=1.155 ps=7.33 w=7 l=1
X234 commonsourceibias.t53 commonsourceibias.t52 gnd.t290 gnd.t205 sky130_fd_pr__nfet_01v8 ad=1.155 pd=7.33 as=1.155 ps=7.33 w=7 l=1
X235 vdd.t110 a_n1986_13878.t60 a_n1986_8322.t2 vdd.t109 sky130_fd_pr__pfet_01v8 ad=1.485 pd=9.33 as=1.485 ps=9.33 w=9 l=0.5
X236 a_n1986_8322.t13 a_n1986_13878.t61 a_n6308_8799.t16 vdd.t98 sky130_fd_pr__pfet_01v8 ad=1.485 pd=9.33 as=1.485 ps=9.33 w=9 l=0.5
X237 CSoutput.t27 a_n6308_8799.t76 vdd.t137 vdd.t136 sky130_fd_pr__pfet_01v8 ad=1.32 pd=8.33 as=1.32 ps=8.33 w=8 l=0.5
X238 vdd.t178 a_n6308_8799.t77 CSoutput.t26 vdd.t134 sky130_fd_pr__pfet_01v8 ad=1.32 pd=8.33 as=1.32 ps=8.33 w=8 l=0.5
X239 CSoutput.t120 commonsourceibias.t111 gnd.t289 gnd.t237 sky130_fd_pr__nfet_01v8 ad=1.155 pd=7.33 as=1.155 ps=7.33 w=7 l=1
X240 CSoutput.t25 a_n6308_8799.t78 vdd.t177 vdd.t150 sky130_fd_pr__pfet_01v8 ad=1.32 pd=8.33 as=3.12 ps=16.78 w=8 l=0.5
X241 gnd.t262 commonsourceibias.t112 CSoutput.t119 gnd.t199 sky130_fd_pr__nfet_01v8 ad=1.155 pd=7.33 as=1.155 ps=7.33 w=7 l=1
X242 vdd.t176 a_n6308_8799.t79 CSoutput.t24 vdd.t142 sky130_fd_pr__pfet_01v8 ad=1.32 pd=8.33 as=1.32 ps=8.33 w=8 l=0.5
X243 vdd.t175 a_n6308_8799.t80 CSoutput.t23 vdd.t154 sky130_fd_pr__pfet_01v8 ad=1.32 pd=8.33 as=1.32 ps=8.33 w=8 l=0.5
X244 CSoutput.t118 commonsourceibias.t113 gnd.t288 gnd.t237 sky130_fd_pr__nfet_01v8 ad=1.155 pd=7.33 as=1.155 ps=7.33 w=7 l=1
X245 gnd.t284 commonsourceibias.t114 CSoutput.t117 gnd.t263 sky130_fd_pr__nfet_01v8 ad=1.155 pd=7.33 as=1.155 ps=7.33 w=7 l=1
X246 gnd.t283 commonsourceibias.t115 CSoutput.t116 gnd.t222 sky130_fd_pr__nfet_01v8 ad=2.73 pd=14.78 as=1.155 ps=7.33 w=7 l=1
X247 CSoutput.t115 commonsourceibias.t116 gnd.t287 gnd.t203 sky130_fd_pr__nfet_01v8 ad=1.155 pd=7.33 as=1.155 ps=7.33 w=7 l=1
X248 commonsourceibias.t51 commonsourceibias.t50 gnd.t286 gnd.t285 sky130_fd_pr__nfet_01v8 ad=1.155 pd=7.33 as=1.155 ps=7.33 w=7 l=1
X249 a_n3827_n3924.t30 plus.t16 a_n6308_8799.t14 gnd.t159 sky130_fd_pr__nfet_01v8 ad=1.155 pd=7.33 as=1.155 ps=7.33 w=7 l=0.5