* NGSPICE file created from opamp462.ext - technology: sky130A

.subckt opamp462 gnd CSoutput output vdd plus minus commonsourceibias outputibias
+ diffpairibias
X0 CSoutput.t223 a_n7636_8799.t32 vdd.t291 vdd.t231 sky130_fd_pr__pfet_01v8 ad=1.32 pd=8.33 as=1.32 ps=8.33 w=8 l=0.5
X1 a_n1808_13878.t11 a_n1986_13878.t21 a_n1986_13878.t22 vdd.t4 sky130_fd_pr__pfet_01v8 ad=1.485 pd=9.33 as=1.485 ps=9.33 w=9 l=0.5
X2 CSoutput.t67 commonsourceibias.t80 gnd.t206 gnd.t118 sky130_fd_pr__nfet_01v8 ad=1.155 pd=7.33 as=1.155 ps=7.33 w=7 l=1
X3 a_n1808_13878.t19 a_n1986_13878.t44 vdd.t39 vdd.t38 sky130_fd_pr__pfet_01v8 ad=1.485 pd=9.33 as=1.485 ps=9.33 w=9 l=0.5
X4 vdd.t290 a_n7636_8799.t33 CSoutput.t222 vdd.t225 sky130_fd_pr__pfet_01v8 ad=1.32 pd=8.33 as=1.32 ps=8.33 w=8 l=0.5
X5 CSoutput.t221 a_n7636_8799.t34 vdd.t289 vdd.t150 sky130_fd_pr__pfet_01v8 ad=1.32 pd=8.33 as=1.32 ps=8.33 w=8 l=0.5
X6 gnd.t205 commonsourceibias.t81 CSoutput.t60 gnd.t104 sky130_fd_pr__nfet_01v8 ad=1.155 pd=7.33 as=1.155 ps=7.33 w=7 l=1
X7 CSoutput.t62 commonsourceibias.t82 gnd.t204 gnd.t75 sky130_fd_pr__nfet_01v8 ad=1.155 pd=7.33 as=1.155 ps=7.33 w=7 l=1
X8 CSoutput.t46 commonsourceibias.t83 gnd.t203 gnd.t9 sky130_fd_pr__nfet_01v8 ad=1.155 pd=7.33 as=1.155 ps=7.33 w=7 l=1
X9 CSoutput.t220 a_n7636_8799.t35 vdd.t288 vdd.t152 sky130_fd_pr__pfet_01v8 ad=1.32 pd=8.33 as=1.32 ps=8.33 w=8 l=0.5
X10 gnd.t202 commonsourceibias.t84 CSoutput.t47 gnd.t122 sky130_fd_pr__nfet_01v8 ad=1.155 pd=7.33 as=1.155 ps=7.33 w=7 l=1
X11 CSoutput.t240 a_n1986_8322.t21 sky130_fd_pr__cap_mim_m3_1 l=12 w=12
X12 vdd.t119 vdd.t117 vdd.t118 vdd.t71 sky130_fd_pr__pfet_01v8 ad=3.12 pd=16.78 as=0 ps=0 w=8 l=0.5
X13 a_n1986_8322.t19 a_n1986_13878.t45 a_n7636_8799.t11 vdd.t6 sky130_fd_pr__pfet_01v8 ad=1.485 pd=9.33 as=1.485 ps=9.33 w=9 l=0.5
X14 vdd.t126 CSoutput.t241 output.t19 gnd.t402 sky130_fd_pr__nfet_01v8 ad=0.825 pd=5.33 as=0.825 ps=5.33 w=5 l=1
X15 CSoutput.t219 a_n7636_8799.t36 vdd.t287 vdd.t191 sky130_fd_pr__pfet_01v8 ad=1.32 pd=8.33 as=1.32 ps=8.33 w=8 l=0.5
X16 CSoutput.t72 commonsourceibias.t85 gnd.t201 gnd.t52 sky130_fd_pr__nfet_01v8 ad=1.155 pd=7.33 as=1.155 ps=7.33 w=7 l=1
X17 gnd.t325 gnd.t323 plus.t4 gnd.t324 sky130_fd_pr__nfet_01v8 ad=0.39 pd=2.78 as=0.165 ps=1.33 w=1 l=0.5
X18 gnd.t200 commonsourceibias.t86 CSoutput.t7 gnd.t22 sky130_fd_pr__nfet_01v8 ad=1.155 pd=7.33 as=1.155 ps=7.33 w=7 l=1
X19 CSoutput.t41 commonsourceibias.t87 gnd.t199 gnd.t102 sky130_fd_pr__nfet_01v8 ad=1.155 pd=7.33 as=1.155 ps=7.33 w=7 l=1
X20 a_n7636_8799.t7 plus.t5 a_n2903_n3924.t30 gnd.t0 sky130_fd_pr__nfet_01v8 ad=1.155 pd=7.33 as=1.155 ps=7.33 w=7 l=0.5
X21 gnd.t198 commonsourceibias.t88 CSoutput.t80 gnd.t49 sky130_fd_pr__nfet_01v8 ad=2.73 pd=14.78 as=1.155 ps=7.33 w=7 l=1
X22 vdd.t286 a_n7636_8799.t37 CSoutput.t218 vdd.t218 sky130_fd_pr__pfet_01v8 ad=1.32 pd=8.33 as=1.32 ps=8.33 w=8 l=0.5
X23 CSoutput.t87 commonsourceibias.t89 gnd.t197 gnd.t102 sky130_fd_pr__nfet_01v8 ad=1.155 pd=7.33 as=1.155 ps=7.33 w=7 l=1
X24 minus.t4 gnd.t310 gnd.t312 gnd.t311 sky130_fd_pr__nfet_01v8 ad=0.165 pd=1.33 as=0.165 ps=1.33 w=1 l=0.5
X25 CSoutput.t26 commonsourceibias.t90 gnd.t196 gnd.t124 sky130_fd_pr__nfet_01v8 ad=1.155 pd=7.33 as=1.155 ps=7.33 w=7 l=1
X26 gnd.t195 commonsourceibias.t91 CSoutput.t18 gnd.t84 sky130_fd_pr__nfet_01v8 ad=1.155 pd=7.33 as=1.155 ps=7.33 w=7 l=1
X27 gnd.t322 gnd.t319 gnd.t321 gnd.t320 sky130_fd_pr__nfet_01v8 ad=2.34 pd=12.78 as=0 ps=0 w=6 l=2
X28 gnd.t318 gnd.t316 gnd.t317 gnd.t231 sky130_fd_pr__nfet_01v8 ad=2.73 pd=14.78 as=0 ps=0 w=7 l=1
X29 commonsourceibias.t75 commonsourceibias.t74 gnd.t194 gnd.t52 sky130_fd_pr__nfet_01v8 ad=1.155 pd=7.33 as=1.155 ps=7.33 w=7 l=1
X30 CSoutput.t28 commonsourceibias.t92 gnd.t193 gnd.t9 sky130_fd_pr__nfet_01v8 ad=1.155 pd=7.33 as=1.155 ps=7.33 w=7 l=1
X31 gnd.t315 gnd.t313 gnd.t314 gnd.t227 sky130_fd_pr__nfet_01v8 ad=2.73 pd=14.78 as=0 ps=0 w=7 l=1
X32 vdd.t285 a_n7636_8799.t38 CSoutput.t217 vdd.t245 sky130_fd_pr__pfet_01v8 ad=1.32 pd=8.33 as=1.32 ps=8.33 w=8 l=0.5
X33 CSoutput.t216 a_n7636_8799.t39 vdd.t284 vdd.t193 sky130_fd_pr__pfet_01v8 ad=1.32 pd=8.33 as=1.32 ps=8.33 w=8 l=0.5
X34 vdd.t283 a_n7636_8799.t40 CSoutput.t215 vdd.t242 sky130_fd_pr__pfet_01v8 ad=1.32 pd=8.33 as=1.32 ps=8.33 w=8 l=0.5
X35 vdd.t282 a_n7636_8799.t41 CSoutput.t214 vdd.t269 sky130_fd_pr__pfet_01v8 ad=1.32 pd=8.33 as=1.32 ps=8.33 w=8 l=0.5
X36 a_n7636_8799.t19 a_n1986_13878.t46 a_n1986_8322.t18 vdd.t32 sky130_fd_pr__pfet_01v8 ad=1.485 pd=9.33 as=3.51 ps=18.78 w=9 l=0.5
X37 CSoutput.t213 a_n7636_8799.t42 vdd.t281 vdd.t144 sky130_fd_pr__pfet_01v8 ad=1.32 pd=8.33 as=3.12 ps=16.78 w=8 l=0.5
X38 CSoutput.t81 commonsourceibias.t93 gnd.t192 gnd.t118 sky130_fd_pr__nfet_01v8 ad=1.155 pd=7.33 as=1.155 ps=7.33 w=7 l=1
X39 gnd.t191 commonsourceibias.t94 CSoutput.t74 gnd.t91 sky130_fd_pr__nfet_01v8 ad=1.155 pd=7.33 as=1.155 ps=7.33 w=7 l=1
X40 gnd.t309 gnd.t307 gnd.t308 gnd.t239 sky130_fd_pr__nfet_01v8 ad=2.73 pd=14.78 as=0 ps=0 w=7 l=1
X41 a_n7636_8799.t9 plus.t6 a_n2903_n3924.t29 gnd.t337 sky130_fd_pr__nfet_01v8 ad=1.155 pd=7.33 as=1.155 ps=7.33 w=7 l=0.5
X42 CSoutput.t235 commonsourceibias.t95 gnd.t190 gnd.t61 sky130_fd_pr__nfet_01v8 ad=1.155 pd=7.33 as=1.155 ps=7.33 w=7 l=1
X43 CSoutput.t98 commonsourceibias.t96 gnd.t189 gnd.t72 sky130_fd_pr__nfet_01v8 ad=1.155 pd=7.33 as=1.155 ps=7.33 w=7 l=1
X44 CSoutput.t31 commonsourceibias.t97 gnd.t188 gnd.t86 sky130_fd_pr__nfet_01v8 ad=1.155 pd=7.33 as=1.155 ps=7.33 w=7 l=1
X45 CSoutput.t212 a_n7636_8799.t43 vdd.t280 vdd.t231 sky130_fd_pr__pfet_01v8 ad=1.32 pd=8.33 as=1.32 ps=8.33 w=8 l=0.5
X46 vdd.t116 vdd.t114 vdd.t115 vdd.t49 sky130_fd_pr__pfet_01v8 ad=3.12 pd=16.78 as=0 ps=0 w=8 l=0.5
X47 CSoutput.t211 a_n7636_8799.t44 vdd.t279 vdd.t187 sky130_fd_pr__pfet_01v8 ad=1.32 pd=8.33 as=1.32 ps=8.33 w=8 l=0.5
X48 a_n2903_n3924.t8 diffpairibias.t16 gnd.t340 gnd.t339 sky130_fd_pr__nfet_01v8 ad=2.73 pd=14.78 as=2.73 ps=14.78 w=7 l=1
X49 gnd.t187 commonsourceibias.t98 CSoutput.t51 gnd.t24 sky130_fd_pr__nfet_01v8 ad=2.73 pd=14.78 as=1.155 ps=7.33 w=7 l=1
X50 a_n2903_n3924.t36 minus.t5 a_n1986_13878.t36 gnd.t353 sky130_fd_pr__nfet_01v8 ad=1.155 pd=7.33 as=1.155 ps=7.33 w=7 l=0.5
X51 gnd.t186 commonsourceibias.t99 CSoutput.t59 gnd.t57 sky130_fd_pr__nfet_01v8 ad=1.155 pd=7.33 as=1.155 ps=7.33 w=7 l=1
X52 a_n2903_n3924.t28 plus.t7 a_n7636_8799.t27 gnd.t373 sky130_fd_pr__nfet_01v8 ad=1.155 pd=7.33 as=1.155 ps=7.33 w=7 l=0.5
X53 CSoutput.t65 commonsourceibias.t100 gnd.t185 gnd.t113 sky130_fd_pr__nfet_01v8 ad=1.155 pd=7.33 as=1.155 ps=7.33 w=7 l=1
X54 CSoutput.t88 commonsourceibias.t101 gnd.t184 gnd.t34 sky130_fd_pr__nfet_01v8 ad=1.155 pd=7.33 as=2.73 ps=14.78 w=7 l=1
X55 a_n1986_13878.t9 minus.t6 a_n2903_n3924.t33 gnd.t328 sky130_fd_pr__nfet_01v8 ad=1.155 pd=7.33 as=1.155 ps=7.33 w=7 l=0.5
X56 gnd.t180 commonsourceibias.t2 commonsourceibias.t3 gnd.t54 sky130_fd_pr__nfet_01v8 ad=1.155 pd=7.33 as=1.155 ps=7.33 w=7 l=1
X57 CSoutput.t1 commonsourceibias.t102 gnd.t183 gnd.t86 sky130_fd_pr__nfet_01v8 ad=1.155 pd=7.33 as=1.155 ps=7.33 w=7 l=1
X58 a_n2903_n3924.t27 plus.t8 a_n7636_8799.t0 gnd.t2 sky130_fd_pr__nfet_01v8 ad=1.155 pd=7.33 as=1.155 ps=7.33 w=7 l=0.5
X59 CSoutput.t210 a_n7636_8799.t45 vdd.t278 vdd.t152 sky130_fd_pr__pfet_01v8 ad=1.32 pd=8.33 as=1.32 ps=8.33 w=8 l=0.5
X60 a_n2903_n3924.t32 minus.t7 a_n1986_13878.t8 gnd.t356 sky130_fd_pr__nfet_01v8 ad=1.155 pd=7.33 as=1.155 ps=7.33 w=7 l=0.5
X61 gnd.t182 commonsourceibias.t103 CSoutput.t43 gnd.t109 sky130_fd_pr__nfet_01v8 ad=1.155 pd=7.33 as=1.155 ps=7.33 w=7 l=1
X62 a_n1808_13878.t10 a_n1986_13878.t19 a_n1986_13878.t20 vdd.t7 sky130_fd_pr__pfet_01v8 ad=1.485 pd=9.33 as=3.51 ps=18.78 w=9 l=0.5
X63 vdd.t113 vdd.t111 vdd.t112 vdd.t71 sky130_fd_pr__pfet_01v8 ad=3.12 pd=16.78 as=0 ps=0 w=8 l=0.5
X64 CSoutput.t231 commonsourceibias.t104 gnd.t181 gnd.t43 sky130_fd_pr__nfet_01v8 ad=1.155 pd=7.33 as=1.155 ps=7.33 w=7 l=1
X65 CSoutput.t39 commonsourceibias.t105 gnd.t179 gnd.t67 sky130_fd_pr__nfet_01v8 ad=1.155 pd=7.33 as=1.155 ps=7.33 w=7 l=1
X66 vdd.t277 a_n7636_8799.t46 CSoutput.t209 vdd.t269 sky130_fd_pr__pfet_01v8 ad=1.32 pd=8.33 as=1.32 ps=8.33 w=8 l=0.5
X67 gnd.t178 commonsourceibias.t106 CSoutput.t15 gnd.t109 sky130_fd_pr__nfet_01v8 ad=1.155 pd=7.33 as=1.155 ps=7.33 w=7 l=1
X68 vdd.t127 CSoutput.t242 output.t18 gnd.t401 sky130_fd_pr__nfet_01v8 ad=0.825 pd=5.33 as=0.825 ps=5.33 w=5 l=1
X69 CSoutput.t208 a_n7636_8799.t47 vdd.t276 vdd.t223 sky130_fd_pr__pfet_01v8 ad=1.32 pd=8.33 as=1.32 ps=8.33 w=8 l=0.5
X70 a_n1986_13878.t30 a_n1986_13878.t29 a_n1808_13878.t9 vdd.t29 sky130_fd_pr__pfet_01v8 ad=1.485 pd=9.33 as=1.485 ps=9.33 w=9 l=0.5
X71 CSoutput.t84 commonsourceibias.t107 gnd.t177 gnd.t26 sky130_fd_pr__nfet_01v8 ad=1.155 pd=7.33 as=1.155 ps=7.33 w=7 l=1
X72 gnd.t176 commonsourceibias.t108 CSoutput.t38 gnd.t104 sky130_fd_pr__nfet_01v8 ad=1.155 pd=7.33 as=1.155 ps=7.33 w=7 l=1
X73 CSoutput.t207 a_n7636_8799.t48 vdd.t275 vdd.t191 sky130_fd_pr__pfet_01v8 ad=1.32 pd=8.33 as=1.32 ps=8.33 w=8 l=0.5
X74 CSoutput.t243 a_n1986_8322.t20 sky130_fd_pr__cap_mim_m3_1 l=12 w=12
X75 vdd.t110 vdd.t108 vdd.t109 vdd.t84 sky130_fd_pr__pfet_01v8 ad=3.51 pd=18.78 as=0 ps=0 w=9 l=0.5
X76 gnd.t175 commonsourceibias.t0 commonsourceibias.t1 gnd.t15 sky130_fd_pr__nfet_01v8 ad=1.155 pd=7.33 as=1.155 ps=7.33 w=7 l=1
X77 a_n2903_n3924.t1 minus.t8 a_n1986_13878.t1 gnd.t1 sky130_fd_pr__nfet_01v8 ad=1.155 pd=7.33 as=1.155 ps=7.33 w=7 l=0.5
X78 vdd.t274 a_n7636_8799.t49 CSoutput.t206 vdd.t218 sky130_fd_pr__pfet_01v8 ad=1.32 pd=8.33 as=1.32 ps=8.33 w=8 l=0.5
X79 CSoutput.t93 commonsourceibias.t109 gnd.t174 gnd.t102 sky130_fd_pr__nfet_01v8 ad=1.155 pd=7.33 as=1.155 ps=7.33 w=7 l=1
X80 gnd.t306 gnd.t304 gnd.t305 gnd.t239 sky130_fd_pr__nfet_01v8 ad=2.73 pd=14.78 as=0 ps=0 w=7 l=1
X81 CSoutput.t94 commonsourceibias.t110 gnd.t173 gnd.t67 sky130_fd_pr__nfet_01v8 ad=1.155 pd=7.33 as=1.155 ps=7.33 w=7 l=1
X82 diffpairibias.t15 diffpairibias.t14 gnd.t333 gnd.t332 sky130_fd_pr__nfet_01v8 ad=2.73 pd=14.78 as=2.73 ps=14.78 w=7 l=1
X83 gnd.t172 commonsourceibias.t111 CSoutput.t14 gnd.t7 sky130_fd_pr__nfet_01v8 ad=1.155 pd=7.33 as=1.155 ps=7.33 w=7 l=1
X84 CSoutput.t2 commonsourceibias.t112 gnd.t171 gnd.t34 sky130_fd_pr__nfet_01v8 ad=1.155 pd=7.33 as=2.73 ps=14.78 w=7 l=1
X85 CSoutput.t48 commonsourceibias.t113 gnd.t170 gnd.t81 sky130_fd_pr__nfet_01v8 ad=1.155 pd=7.33 as=1.155 ps=7.33 w=7 l=1
X86 gnd.t169 commonsourceibias.t114 CSoutput.t82 gnd.t28 sky130_fd_pr__nfet_01v8 ad=1.155 pd=7.33 as=1.155 ps=7.33 w=7 l=1
X87 gnd.t303 gnd.t301 gnd.t302 gnd.t235 sky130_fd_pr__nfet_01v8 ad=2.73 pd=14.78 as=0 ps=0 w=7 l=0.5
X88 gnd.t168 commonsourceibias.t115 CSoutput.t102 gnd.t64 sky130_fd_pr__nfet_01v8 ad=1.155 pd=7.33 as=1.155 ps=7.33 w=7 l=1
X89 CSoutput.t205 a_n7636_8799.t50 vdd.t273 vdd.t227 sky130_fd_pr__pfet_01v8 ad=1.32 pd=8.33 as=1.32 ps=8.33 w=8 l=0.5
X90 gnd.t167 commonsourceibias.t116 CSoutput.t8 gnd.t20 sky130_fd_pr__nfet_01v8 ad=1.155 pd=7.33 as=1.155 ps=7.33 w=7 l=1
X91 vdd.t272 a_n7636_8799.t51 CSoutput.t204 vdd.t242 sky130_fd_pr__pfet_01v8 ad=1.32 pd=8.33 as=1.32 ps=8.33 w=8 l=0.5
X92 gnd.t300 gnd.t299 plus.t3 gnd.t235 sky130_fd_pr__nfet_01v8 ad=0.165 pd=1.33 as=0.165 ps=1.33 w=1 l=0.5
X93 vdd.t271 a_n7636_8799.t52 CSoutput.t203 vdd.t161 sky130_fd_pr__pfet_01v8 ad=1.32 pd=8.33 as=1.32 ps=8.33 w=8 l=0.5
X94 minus.t3 gnd.t296 gnd.t298 gnd.t297 sky130_fd_pr__nfet_01v8 ad=0.165 pd=1.33 as=0.165 ps=1.33 w=1 l=0.5
X95 vdd.t270 a_n7636_8799.t53 CSoutput.t202 vdd.t269 sky130_fd_pr__pfet_01v8 ad=1.32 pd=8.33 as=1.32 ps=8.33 w=8 l=0.5
X96 vdd.t268 a_n7636_8799.t54 CSoutput.t201 vdd.t215 sky130_fd_pr__pfet_01v8 ad=1.32 pd=8.33 as=1.32 ps=8.33 w=8 l=0.5
X97 CSoutput.t42 commonsourceibias.t117 gnd.t166 gnd.t81 sky130_fd_pr__nfet_01v8 ad=1.155 pd=7.33 as=1.155 ps=7.33 w=7 l=1
X98 diffpairibias.t13 diffpairibias.t12 gnd.t365 gnd.t364 sky130_fd_pr__nfet_01v8 ad=2.73 pd=14.78 as=2.73 ps=14.78 w=7 l=1
X99 CSoutput.t200 a_n7636_8799.t55 vdd.t267 vdd.t144 sky130_fd_pr__pfet_01v8 ad=1.32 pd=8.33 as=3.12 ps=16.78 w=8 l=0.5
X100 CSoutput.t199 a_n7636_8799.t56 vdd.t266 vdd.t168 sky130_fd_pr__pfet_01v8 ad=1.32 pd=8.33 as=1.32 ps=8.33 w=8 l=0.5
X101 gnd.t165 commonsourceibias.t70 commonsourceibias.t71 gnd.t69 sky130_fd_pr__nfet_01v8 ad=1.155 pd=7.33 as=1.155 ps=7.33 w=7 l=1
X102 gnd.t164 commonsourceibias.t118 CSoutput.t97 gnd.t84 sky130_fd_pr__nfet_01v8 ad=1.155 pd=7.33 as=1.155 ps=7.33 w=7 l=1
X103 CSoutput.t95 commonsourceibias.t119 gnd.t163 gnd.t26 sky130_fd_pr__nfet_01v8 ad=1.155 pd=7.33 as=1.155 ps=7.33 w=7 l=1
X104 gnd.t162 commonsourceibias.t120 CSoutput.t233 gnd.t69 sky130_fd_pr__nfet_01v8 ad=1.155 pd=7.33 as=1.155 ps=7.33 w=7 l=1
X105 CSoutput.t83 commonsourceibias.t121 gnd.t161 gnd.t124 sky130_fd_pr__nfet_01v8 ad=1.155 pd=7.33 as=1.155 ps=7.33 w=7 l=1
X106 CSoutput.t33 commonsourceibias.t122 gnd.t160 gnd.t47 sky130_fd_pr__nfet_01v8 ad=1.155 pd=7.33 as=1.155 ps=7.33 w=7 l=1
X107 vdd.t265 a_n7636_8799.t57 CSoutput.t198 vdd.t146 sky130_fd_pr__pfet_01v8 ad=1.32 pd=8.33 as=1.32 ps=8.33 w=8 l=0.5
X108 CSoutput.t96 commonsourceibias.t123 gnd.t159 gnd.t36 sky130_fd_pr__nfet_01v8 ad=1.155 pd=7.33 as=1.155 ps=7.33 w=7 l=1
X109 CSoutput.t197 a_n7636_8799.t58 vdd.t264 vdd.t249 sky130_fd_pr__pfet_01v8 ad=1.32 pd=8.33 as=1.32 ps=8.33 w=8 l=0.5
X110 gnd.t158 commonsourceibias.t124 CSoutput.t22 gnd.t91 sky130_fd_pr__nfet_01v8 ad=1.155 pd=7.33 as=1.155 ps=7.33 w=7 l=1
X111 CSoutput.t196 a_n7636_8799.t59 vdd.t263 vdd.t187 sky130_fd_pr__pfet_01v8 ad=1.32 pd=8.33 as=1.32 ps=8.33 w=8 l=0.5
X112 CSoutput.t195 a_n7636_8799.t60 vdd.t261 vdd.t134 sky130_fd_pr__pfet_01v8 ad=1.32 pd=8.33 as=3.12 ps=16.78 w=8 l=0.5
X113 CSoutput.t194 a_n7636_8799.t61 vdd.t262 vdd.t249 sky130_fd_pr__pfet_01v8 ad=1.32 pd=8.33 as=1.32 ps=8.33 w=8 l=0.5
X114 gnd.t157 commonsourceibias.t6 commonsourceibias.t7 gnd.t40 sky130_fd_pr__nfet_01v8 ad=1.155 pd=7.33 as=1.155 ps=7.33 w=7 l=1
X115 vdd.t260 a_n7636_8799.t62 CSoutput.t193 vdd.t247 sky130_fd_pr__pfet_01v8 ad=1.32 pd=8.33 as=1.32 ps=8.33 w=8 l=0.5
X116 gnd.t156 commonsourceibias.t4 commonsourceibias.t5 gnd.t24 sky130_fd_pr__nfet_01v8 ad=2.73 pd=14.78 as=1.155 ps=7.33 w=7 l=1
X117 CSoutput.t49 commonsourceibias.t125 gnd.t155 gnd.t113 sky130_fd_pr__nfet_01v8 ad=1.155 pd=7.33 as=1.155 ps=7.33 w=7 l=1
X118 vdd.t42 CSoutput.t244 output.t17 gnd.t400 sky130_fd_pr__nfet_01v8 ad=0.825 pd=5.33 as=0.825 ps=5.33 w=5 l=1
X119 a_n7636_8799.t26 plus.t9 a_n2903_n3924.t26 gnd.t4 sky130_fd_pr__nfet_01v8 ad=1.155 pd=7.33 as=1.155 ps=7.33 w=7 l=0.5
X120 output.t16 CSoutput.t245 vdd.t43 gnd.t399 sky130_fd_pr__nfet_01v8 ad=0.825 pd=5.33 as=0.825 ps=5.33 w=5 l=1
X121 CSoutput.t234 commonsourceibias.t126 gnd.t154 gnd.t43 sky130_fd_pr__nfet_01v8 ad=1.155 pd=7.33 as=1.155 ps=7.33 w=7 l=1
X122 gnd.t153 commonsourceibias.t127 CSoutput.t103 gnd.t69 sky130_fd_pr__nfet_01v8 ad=1.155 pd=7.33 as=1.155 ps=7.33 w=7 l=1
X123 a_n2903_n3924.t7 diffpairibias.t17 gnd.t336 gnd.t335 sky130_fd_pr__nfet_01v8 ad=2.73 pd=14.78 as=2.73 ps=14.78 w=7 l=1
X124 CSoutput.t246 a_n1986_8322.t20 sky130_fd_pr__cap_mim_m3_1 l=12 w=12
X125 vdd.t259 a_n7636_8799.t63 CSoutput.t192 vdd.t213 sky130_fd_pr__pfet_01v8 ad=1.32 pd=8.33 as=1.32 ps=8.33 w=8 l=0.5
X126 gnd.t295 gnd.t293 gnd.t294 gnd.t223 sky130_fd_pr__nfet_01v8 ad=2.73 pd=14.78 as=0 ps=0 w=7 l=1
X127 a_n2903_n3924.t38 minus.t9 a_n1986_13878.t38 gnd.t368 sky130_fd_pr__nfet_01v8 ad=1.155 pd=7.33 as=1.155 ps=7.33 w=7 l=0.5
X128 a_n1986_13878.t18 a_n1986_13878.t17 a_n1808_13878.t8 vdd.t6 sky130_fd_pr__pfet_01v8 ad=1.485 pd=9.33 as=1.485 ps=9.33 w=9 l=0.5
X129 vdd.t258 a_n7636_8799.t64 CSoutput.t191 vdd.t195 sky130_fd_pr__pfet_01v8 ad=1.32 pd=8.33 as=1.32 ps=8.33 w=8 l=0.5
X130 vdd.t257 a_n7636_8799.t65 CSoutput.t190 vdd.t245 sky130_fd_pr__pfet_01v8 ad=1.32 pd=8.33 as=1.32 ps=8.33 w=8 l=0.5
X131 gnd.t152 commonsourceibias.t128 CSoutput.t50 gnd.t57 sky130_fd_pr__nfet_01v8 ad=1.155 pd=7.33 as=1.155 ps=7.33 w=7 l=1
X132 gnd.t292 gnd.t289 gnd.t291 gnd.t290 sky130_fd_pr__nfet_01v8 ad=1.95 pd=10.78 as=0 ps=0 w=5 l=1
X133 a_n7636_8799.t2 a_n1986_13878.t47 a_n1986_8322.t17 vdd.t5 sky130_fd_pr__pfet_01v8 ad=1.485 pd=9.33 as=1.485 ps=9.33 w=9 l=0.5
X134 a_n1986_13878.t28 a_n1986_13878.t27 a_n1808_13878.t7 vdd.t24 sky130_fd_pr__pfet_01v8 ad=3.51 pd=18.78 as=1.485 ps=9.33 w=9 l=0.5
X135 a_n1986_13878.t10 minus.t10 a_n2903_n3924.t34 gnd.t357 sky130_fd_pr__nfet_01v8 ad=1.155 pd=7.33 as=1.155 ps=7.33 w=7 l=0.5
X136 gnd.t288 gnd.t286 gnd.t287 gnd.t223 sky130_fd_pr__nfet_01v8 ad=2.73 pd=14.78 as=0 ps=0 w=7 l=1
X137 vdd.t256 a_n7636_8799.t66 CSoutput.t189 vdd.t247 sky130_fd_pr__pfet_01v8 ad=1.32 pd=8.33 as=1.32 ps=8.33 w=8 l=0.5
X138 a_n2903_n3924.t25 plus.t10 a_n7636_8799.t24 gnd.t350 sky130_fd_pr__nfet_01v8 ad=1.155 pd=7.33 as=1.155 ps=7.33 w=7 l=0.5
X139 gnd.t151 commonsourceibias.t129 CSoutput.t34 gnd.t7 sky130_fd_pr__nfet_01v8 ad=1.155 pd=7.33 as=1.155 ps=7.33 w=7 l=1
X140 CSoutput.t61 commonsourceibias.t130 gnd.t150 gnd.t72 sky130_fd_pr__nfet_01v8 ad=1.155 pd=7.33 as=1.155 ps=7.33 w=7 l=1
X141 commonsourceibias.t11 commonsourceibias.t10 gnd.t148 gnd.t43 sky130_fd_pr__nfet_01v8 ad=1.155 pd=7.33 as=1.155 ps=7.33 w=7 l=1
X142 vdd.t255 a_n7636_8799.t67 CSoutput.t188 vdd.t165 sky130_fd_pr__pfet_01v8 ad=1.32 pd=8.33 as=1.32 ps=8.33 w=8 l=0.5
X143 CSoutput.t187 a_n7636_8799.t68 vdd.t254 vdd.t199 sky130_fd_pr__pfet_01v8 ad=1.32 pd=8.33 as=1.32 ps=8.33 w=8 l=0.5
X144 gnd.t149 commonsourceibias.t131 CSoutput.t35 gnd.t17 sky130_fd_pr__nfet_01v8 ad=1.155 pd=7.33 as=1.155 ps=7.33 w=7 l=1
X145 a_n2903_n3924.t5 minus.t11 a_n1986_13878.t4 gnd.t329 sky130_fd_pr__nfet_01v8 ad=2.73 pd=14.78 as=1.155 ps=7.33 w=7 l=0.5
X146 gnd.t147 commonsourceibias.t132 CSoutput.t45 gnd.t32 sky130_fd_pr__nfet_01v8 ad=1.155 pd=7.33 as=1.155 ps=7.33 w=7 l=1
X147 vdd.t253 a_n7636_8799.t69 CSoutput.t186 vdd.t215 sky130_fd_pr__pfet_01v8 ad=1.32 pd=8.33 as=1.32 ps=8.33 w=8 l=0.5
X148 vdd.t107 vdd.t105 vdd.t106 vdd.t92 sky130_fd_pr__pfet_01v8 ad=3.51 pd=18.78 as=0 ps=0 w=9 l=0.5
X149 gnd.t146 commonsourceibias.t8 commonsourceibias.t9 gnd.t22 sky130_fd_pr__nfet_01v8 ad=1.155 pd=7.33 as=1.155 ps=7.33 w=7 l=1
X150 CSoutput.t185 a_n7636_8799.t70 vdd.t252 vdd.t168 sky130_fd_pr__pfet_01v8 ad=1.32 pd=8.33 as=1.32 ps=8.33 w=8 l=0.5
X151 gnd.t145 commonsourceibias.t133 CSoutput.t85 gnd.t54 sky130_fd_pr__nfet_01v8 ad=1.155 pd=7.33 as=1.155 ps=7.33 w=7 l=1
X152 vdd.t104 vdd.t101 vdd.t103 vdd.t102 sky130_fd_pr__pfet_01v8 ad=3.51 pd=18.78 as=0 ps=0 w=9 l=0.5
X153 vdd.t100 vdd.t98 vdd.t99 vdd.t45 sky130_fd_pr__pfet_01v8 ad=3.51 pd=18.78 as=0 ps=0 w=9 l=0.5
X154 gnd.t285 gnd.t283 gnd.t284 gnd.t227 sky130_fd_pr__nfet_01v8 ad=2.73 pd=14.78 as=0 ps=0 w=7 l=1
X155 vdd.t97 vdd.t95 vdd.t96 vdd.t88 sky130_fd_pr__pfet_01v8 ad=3.51 pd=18.78 as=0 ps=0 w=9 l=0.5
X156 vdd.t41 a_n1986_13878.t48 a_n1986_8322.t7 vdd.t40 sky130_fd_pr__pfet_01v8 ad=1.485 pd=9.33 as=1.485 ps=9.33 w=9 l=0.5
X157 CSoutput.t27 commonsourceibias.t134 gnd.t144 gnd.t45 sky130_fd_pr__nfet_01v8 ad=1.155 pd=7.33 as=2.73 ps=14.78 w=7 l=1
X158 a_n1986_8322.t6 a_n1986_13878.t49 vdd.t23 vdd.t22 sky130_fd_pr__pfet_01v8 ad=1.485 pd=9.33 as=1.485 ps=9.33 w=9 l=0.5
X159 CSoutput.t184 a_n7636_8799.t71 vdd.t251 vdd.t134 sky130_fd_pr__pfet_01v8 ad=1.32 pd=8.33 as=3.12 ps=16.78 w=8 l=0.5
X160 CSoutput.t183 a_n7636_8799.t72 vdd.t250 vdd.t249 sky130_fd_pr__pfet_01v8 ad=1.32 pd=8.33 as=1.32 ps=8.33 w=8 l=0.5
X161 gnd.t143 commonsourceibias.t135 CSoutput.t101 gnd.t84 sky130_fd_pr__nfet_01v8 ad=1.155 pd=7.33 as=1.155 ps=7.33 w=7 l=1
X162 a_n2903_n3924.t45 diffpairibias.t18 gnd.t384 gnd.t383 sky130_fd_pr__nfet_01v8 ad=2.73 pd=14.78 as=2.73 ps=14.78 w=7 l=1
X163 output.t15 CSoutput.t247 vdd.t128 gnd.t398 sky130_fd_pr__nfet_01v8 ad=0.825 pd=5.33 as=0.825 ps=5.33 w=5 l=1
X164 vdd.t129 CSoutput.t248 output.t14 gnd.t397 sky130_fd_pr__nfet_01v8 ad=0.825 pd=5.33 as=0.825 ps=5.33 w=5 l=1
X165 gnd.t142 commonsourceibias.t136 CSoutput.t32 gnd.t109 sky130_fd_pr__nfet_01v8 ad=1.155 pd=7.33 as=1.155 ps=7.33 w=7 l=1
X166 a_n1986_13878.t6 minus.t12 a_n2903_n3924.t9 gnd.t338 sky130_fd_pr__nfet_01v8 ad=1.155 pd=7.33 as=1.155 ps=7.33 w=7 l=0.5
X167 gnd.t137 commonsourceibias.t16 commonsourceibias.t17 gnd.t28 sky130_fd_pr__nfet_01v8 ad=1.155 pd=7.33 as=1.155 ps=7.33 w=7 l=1
X168 CSoutput.t86 commonsourceibias.t137 gnd.t141 gnd.t124 sky130_fd_pr__nfet_01v8 ad=1.155 pd=7.33 as=1.155 ps=7.33 w=7 l=1
X169 gnd.t140 commonsourceibias.t138 CSoutput.t40 gnd.t40 sky130_fd_pr__nfet_01v8 ad=1.155 pd=7.33 as=1.155 ps=7.33 w=7 l=1
X170 CSoutput.t66 commonsourceibias.t139 gnd.t139 gnd.t11 sky130_fd_pr__nfet_01v8 ad=1.155 pd=7.33 as=1.155 ps=7.33 w=7 l=1
X171 CSoutput.t232 commonsourceibias.t140 gnd.t138 gnd.t45 sky130_fd_pr__nfet_01v8 ad=1.155 pd=7.33 as=2.73 ps=14.78 w=7 l=1
X172 CSoutput.t11 commonsourceibias.t141 gnd.t136 gnd.t118 sky130_fd_pr__nfet_01v8 ad=1.155 pd=7.33 as=1.155 ps=7.33 w=7 l=1
X173 vdd.t248 a_n7636_8799.t73 CSoutput.t182 vdd.t247 sky130_fd_pr__pfet_01v8 ad=1.32 pd=8.33 as=1.32 ps=8.33 w=8 l=0.5
X174 a_n2903_n3924.t24 plus.t11 a_n7636_8799.t28 gnd.t378 sky130_fd_pr__nfet_01v8 ad=1.155 pd=7.33 as=1.155 ps=7.33 w=7 l=0.5
X175 vdd.t1 a_n1986_13878.t50 a_n1808_13878.t18 vdd.t0 sky130_fd_pr__pfet_01v8 ad=1.485 pd=9.33 as=1.485 ps=9.33 w=9 l=0.5
X176 vdd.t94 vdd.t91 vdd.t93 vdd.t92 sky130_fd_pr__pfet_01v8 ad=3.51 pd=18.78 as=0 ps=0 w=9 l=0.5
X177 vdd.t130 CSoutput.t249 output.t13 gnd.t396 sky130_fd_pr__nfet_01v8 ad=0.825 pd=5.33 as=0.825 ps=5.33 w=5 l=1
X178 gnd.t282 gnd.t280 gnd.t281 gnd.t223 sky130_fd_pr__nfet_01v8 ad=2.73 pd=14.78 as=0 ps=0 w=7 l=1
X179 vdd.t90 vdd.t87 vdd.t89 vdd.t88 sky130_fd_pr__pfet_01v8 ad=3.51 pd=18.78 as=0 ps=0 w=9 l=0.5
X180 vdd.t246 a_n7636_8799.t74 CSoutput.t181 vdd.t245 sky130_fd_pr__pfet_01v8 ad=1.32 pd=8.33 as=1.32 ps=8.33 w=8 l=0.5
X181 a_n7636_8799.t13 plus.t12 a_n2903_n3924.t23 gnd.t331 sky130_fd_pr__nfet_01v8 ad=1.155 pd=7.33 as=2.73 ps=14.78 w=7 l=0.5
X182 vdd.t86 vdd.t83 vdd.t85 vdd.t84 sky130_fd_pr__pfet_01v8 ad=3.51 pd=18.78 as=0 ps=0 w=9 l=0.5
X183 a_n1986_8322.t5 a_n1986_13878.t51 vdd.t19 vdd.t18 sky130_fd_pr__pfet_01v8 ad=3.51 pd=18.78 as=1.485 ps=9.33 w=9 l=0.5
X184 a_n7636_8799.t25 a_n1986_13878.t52 a_n1986_8322.t16 vdd.t123 sky130_fd_pr__pfet_01v8 ad=1.485 pd=9.33 as=1.485 ps=9.33 w=9 l=0.5
X185 a_n1986_13878.t41 minus.t13 a_n2903_n3924.t43 gnd.t3 sky130_fd_pr__nfet_01v8 ad=1.155 pd=7.33 as=1.155 ps=7.33 w=7 l=0.5
X186 CSoutput.t180 a_n7636_8799.t75 vdd.t244 vdd.t178 sky130_fd_pr__pfet_01v8 ad=1.32 pd=8.33 as=1.32 ps=8.33 w=8 l=0.5
X187 diffpairibias.t11 diffpairibias.t10 gnd.t6 gnd.t5 sky130_fd_pr__nfet_01v8 ad=2.73 pd=14.78 as=2.73 ps=14.78 w=7 l=1
X188 vdd.t243 a_n7636_8799.t76 CSoutput.t179 vdd.t242 sky130_fd_pr__pfet_01v8 ad=1.32 pd=8.33 as=1.32 ps=8.33 w=8 l=0.5
X189 a_n1986_13878.t14 a_n1986_13878.t13 a_n1808_13878.t6 vdd.t28 sky130_fd_pr__pfet_01v8 ad=1.485 pd=9.33 as=1.485 ps=9.33 w=9 l=0.5
X190 vdd.t241 a_n7636_8799.t77 CSoutput.t178 vdd.t165 sky130_fd_pr__pfet_01v8 ad=1.32 pd=8.33 as=1.32 ps=8.33 w=8 l=0.5
X191 CSoutput.t90 commonsourceibias.t142 gnd.t135 gnd.t75 sky130_fd_pr__nfet_01v8 ad=1.155 pd=7.33 as=1.155 ps=7.33 w=7 l=1
X192 a_n7636_8799.t17 a_n1986_13878.t53 a_n1986_8322.t15 vdd.t4 sky130_fd_pr__pfet_01v8 ad=1.485 pd=9.33 as=1.485 ps=9.33 w=9 l=0.5
X193 CSoutput.t177 a_n7636_8799.t78 vdd.t240 vdd.t199 sky130_fd_pr__pfet_01v8 ad=1.32 pd=8.33 as=1.32 ps=8.33 w=8 l=0.5
X194 commonsourceibias.t13 commonsourceibias.t12 gnd.t132 gnd.t9 sky130_fd_pr__nfet_01v8 ad=1.155 pd=7.33 as=1.155 ps=7.33 w=7 l=1
X195 output.t12 CSoutput.t250 vdd.t131 gnd.t395 sky130_fd_pr__nfet_01v8 ad=0.825 pd=5.33 as=0.825 ps=5.33 w=5 l=1
X196 gnd.t134 commonsourceibias.t143 CSoutput.t0 gnd.t104 sky130_fd_pr__nfet_01v8 ad=1.155 pd=7.33 as=1.155 ps=7.33 w=7 l=1
X197 a_n1808_13878.t5 a_n1986_13878.t31 a_n1986_13878.t32 vdd.t5 sky130_fd_pr__pfet_01v8 ad=1.485 pd=9.33 as=1.485 ps=9.33 w=9 l=0.5
X198 gnd.t133 commonsourceibias.t14 commonsourceibias.t15 gnd.t122 sky130_fd_pr__nfet_01v8 ad=1.155 pd=7.33 as=1.155 ps=7.33 w=7 l=1
X199 CSoutput.t9 commonsourceibias.t144 gnd.t131 gnd.t72 sky130_fd_pr__nfet_01v8 ad=1.155 pd=7.33 as=1.155 ps=7.33 w=7 l=1
X200 plus.t2 gnd.t277 gnd.t279 gnd.t278 sky130_fd_pr__nfet_01v8 ad=0.165 pd=1.33 as=0.165 ps=1.33 w=1 l=0.5
X201 gnd.t276 gnd.t274 minus.t2 gnd.t275 sky130_fd_pr__nfet_01v8 ad=0.39 pd=2.78 as=0.165 ps=1.33 w=1 l=0.5
X202 CSoutput.t176 a_n7636_8799.t79 vdd.t239 vdd.t227 sky130_fd_pr__pfet_01v8 ad=1.32 pd=8.33 as=1.32 ps=8.33 w=8 l=0.5
X203 output.t11 CSoutput.t251 vdd.t33 gnd.t394 sky130_fd_pr__nfet_01v8 ad=0.825 pd=5.33 as=0.825 ps=5.33 w=5 l=1
X204 a_n1986_13878.t42 minus.t14 a_n2903_n3924.t46 gnd.t330 sky130_fd_pr__nfet_01v8 ad=1.155 pd=7.33 as=1.155 ps=7.33 w=7 l=0.5
X205 CSoutput.t63 commonsourceibias.t145 gnd.t130 gnd.t67 sky130_fd_pr__nfet_01v8 ad=1.155 pd=7.33 as=1.155 ps=7.33 w=7 l=1
X206 vdd.t295 a_n1986_13878.t54 a_n1986_8322.t4 vdd.t294 sky130_fd_pr__pfet_01v8 ad=1.485 pd=9.33 as=3.51 ps=18.78 w=9 l=0.5
X207 vdd.t238 a_n7636_8799.t80 CSoutput.t175 vdd.t225 sky130_fd_pr__pfet_01v8 ad=1.32 pd=8.33 as=1.32 ps=8.33 w=8 l=0.5
X208 gnd.t129 commonsourceibias.t146 CSoutput.t58 gnd.t32 sky130_fd_pr__nfet_01v8 ad=1.155 pd=7.33 as=1.155 ps=7.33 w=7 l=1
X209 gnd.t128 commonsourceibias.t147 CSoutput.t224 gnd.t122 sky130_fd_pr__nfet_01v8 ad=1.155 pd=7.33 as=1.155 ps=7.33 w=7 l=1
X210 gnd.t127 commonsourceibias.t148 CSoutput.t89 gnd.t64 sky130_fd_pr__nfet_01v8 ad=1.155 pd=7.33 as=1.155 ps=7.33 w=7 l=1
X211 gnd.t126 commonsourceibias.t149 CSoutput.t238 gnd.t91 sky130_fd_pr__nfet_01v8 ad=1.155 pd=7.33 as=1.155 ps=7.33 w=7 l=1
X212 commonsourceibias.t43 commonsourceibias.t42 gnd.t125 gnd.t124 sky130_fd_pr__nfet_01v8 ad=1.155 pd=7.33 as=1.155 ps=7.33 w=7 l=1
X213 gnd.t123 commonsourceibias.t150 CSoutput.t239 gnd.t122 sky130_fd_pr__nfet_01v8 ad=1.155 pd=7.33 as=1.155 ps=7.33 w=7 l=1
X214 gnd.t273 gnd.t271 gnd.t272 gnd.t231 sky130_fd_pr__nfet_01v8 ad=2.73 pd=14.78 as=0 ps=0 w=7 l=1
X215 CSoutput.t174 a_n7636_8799.t81 vdd.t237 vdd.t223 sky130_fd_pr__pfet_01v8 ad=1.32 pd=8.33 as=1.32 ps=8.33 w=8 l=0.5
X216 gnd.t121 commonsourceibias.t151 CSoutput.t73 gnd.t49 sky130_fd_pr__nfet_01v8 ad=2.73 pd=14.78 as=1.155 ps=7.33 w=7 l=1
X217 vdd.t236 a_n7636_8799.t82 CSoutput.t173 vdd.t140 sky130_fd_pr__pfet_01v8 ad=3.12 pd=16.78 as=1.32 ps=8.33 w=8 l=0.5
X218 vdd.t235 a_n7636_8799.t83 CSoutput.t172 vdd.t180 sky130_fd_pr__pfet_01v8 ad=1.32 pd=8.33 as=1.32 ps=8.33 w=8 l=0.5
X219 CSoutput.t225 commonsourceibias.t152 gnd.t120 gnd.t61 sky130_fd_pr__nfet_01v8 ad=1.155 pd=7.33 as=1.155 ps=7.33 w=7 l=1
X220 a_n2903_n3924.t4 diffpairibias.t19 gnd.t327 gnd.t326 sky130_fd_pr__nfet_01v8 ad=2.73 pd=14.78 as=2.73 ps=14.78 w=7 l=1
X221 gnd.t213 gnd.t210 gnd.t212 gnd.t211 sky130_fd_pr__nfet_01v8 ad=2.73 pd=14.78 as=0 ps=0 w=7 l=1
X222 a_n2903_n3924.t39 diffpairibias.t20 gnd.t375 gnd.t374 sky130_fd_pr__nfet_01v8 ad=2.73 pd=14.78 as=2.73 ps=14.78 w=7 l=1
X223 commonsourceibias.t41 commonsourceibias.t40 gnd.t119 gnd.t118 sky130_fd_pr__nfet_01v8 ad=1.155 pd=7.33 as=1.155 ps=7.33 w=7 l=1
X224 a_n1986_13878.t0 minus.t15 a_n2903_n3924.t0 gnd.t0 sky130_fd_pr__nfet_01v8 ad=1.155 pd=7.33 as=1.155 ps=7.33 w=7 l=0.5
X225 vdd.t230 a_n7636_8799.t84 CSoutput.t171 vdd.t213 sky130_fd_pr__pfet_01v8 ad=1.32 pd=8.33 as=1.32 ps=8.33 w=8 l=0.5
X226 vdd.t234 a_n7636_8799.t85 CSoutput.t170 vdd.t185 sky130_fd_pr__pfet_01v8 ad=1.32 pd=8.33 as=1.32 ps=8.33 w=8 l=0.5
X227 gnd.t270 gnd.t268 gnd.t269 gnd.t239 sky130_fd_pr__nfet_01v8 ad=2.73 pd=14.78 as=0 ps=0 w=7 l=1
X228 gnd.t267 gnd.t265 minus.t1 gnd.t266 sky130_fd_pr__nfet_01v8 ad=0.165 pd=1.33 as=0.39 ps=2.78 w=1 l=0.5
X229 CSoutput.t92 commonsourceibias.t153 gnd.t117 gnd.t75 sky130_fd_pr__nfet_01v8 ad=1.155 pd=7.33 as=1.155 ps=7.33 w=7 l=1
X230 CSoutput.t6 commonsourceibias.t154 gnd.t116 gnd.t47 sky130_fd_pr__nfet_01v8 ad=1.155 pd=7.33 as=1.155 ps=7.33 w=7 l=1
X231 commonsourceibias.t39 commonsourceibias.t38 gnd.t115 gnd.t113 sky130_fd_pr__nfet_01v8 ad=1.155 pd=7.33 as=1.155 ps=7.33 w=7 l=1
X232 gnd.t264 gnd.t261 gnd.t263 gnd.t262 sky130_fd_pr__nfet_01v8 ad=1.95 pd=10.78 as=0 ps=0 w=5 l=1
X233 output.t0 outputibias.t8 gnd.t346 gnd.t345 sky130_fd_pr__nfet_01v8 ad=2.34 pd=12.78 as=2.34 ps=12.78 w=6 l=2
X234 gnd.t260 gnd.t258 gnd.t259 gnd.t215 sky130_fd_pr__nfet_01v8 ad=2.73 pd=14.78 as=0 ps=0 w=7 l=0.5
X235 CSoutput.t169 a_n7636_8799.t86 vdd.t233 vdd.t142 sky130_fd_pr__pfet_01v8 ad=1.32 pd=8.33 as=1.32 ps=8.33 w=8 l=0.5
X236 CSoutput.t10 commonsourceibias.t155 gnd.t114 gnd.t113 sky130_fd_pr__nfet_01v8 ad=1.155 pd=7.33 as=1.155 ps=7.33 w=7 l=1
X237 CSoutput.t168 a_n7636_8799.t87 vdd.t232 vdd.t231 sky130_fd_pr__pfet_01v8 ad=1.32 pd=8.33 as=1.32 ps=8.33 w=8 l=0.5
X238 commonsourceibias.t37 commonsourceibias.t36 gnd.t112 gnd.t86 sky130_fd_pr__nfet_01v8 ad=1.155 pd=7.33 as=1.155 ps=7.33 w=7 l=1
X239 a_n1986_13878.t37 minus.t16 a_n2903_n3924.t37 gnd.t337 sky130_fd_pr__nfet_01v8 ad=1.155 pd=7.33 as=1.155 ps=7.33 w=7 l=0.5
X240 CSoutput.t167 a_n7636_8799.t88 vdd.t229 vdd.t207 sky130_fd_pr__pfet_01v8 ad=1.32 pd=8.33 as=1.32 ps=8.33 w=8 l=0.5
X241 CSoutput.t44 commonsourceibias.t156 gnd.t111 gnd.t36 sky130_fd_pr__nfet_01v8 ad=1.155 pd=7.33 as=1.155 ps=7.33 w=7 l=1
X242 outputibias.t7 outputibias.t6 gnd.t363 gnd.t362 sky130_fd_pr__nfet_01v8 ad=2.34 pd=12.78 as=2.34 ps=12.78 w=6 l=2
X243 gnd.t110 commonsourceibias.t34 commonsourceibias.t35 gnd.t109 sky130_fd_pr__nfet_01v8 ad=1.155 pd=7.33 as=1.155 ps=7.33 w=7 l=1
X244 vdd.t34 CSoutput.t252 output.t10 gnd.t393 sky130_fd_pr__nfet_01v8 ad=0.825 pd=5.33 as=0.825 ps=5.33 w=5 l=1
X245 diffpairibias.t9 diffpairibias.t8 gnd.t344 gnd.t343 sky130_fd_pr__nfet_01v8 ad=2.73 pd=14.78 as=2.73 ps=14.78 w=7 l=1
X246 a_n1808_13878.t17 a_n1986_13878.t55 vdd.t121 vdd.t120 sky130_fd_pr__pfet_01v8 ad=1.485 pd=9.33 as=1.485 ps=9.33 w=9 l=0.5
X247 vdd.t82 vdd.t80 vdd.t81 vdd.t56 sky130_fd_pr__pfet_01v8 ad=3.12 pd=16.78 as=0 ps=0 w=8 l=0.5
X248 output.t2 outputibias.t9 gnd.t377 gnd.t376 sky130_fd_pr__nfet_01v8 ad=2.34 pd=12.78 as=2.34 ps=12.78 w=6 l=2