* NGSPICE file created from opamp186.ext - technology: sky130A

.subckt opamp186 gnd CSoutput output vdd plus minus commonsourceibias outputibias
+ diffpairibias
X0 gnd.t337 commonsourceibias.t80 CSoutput.t123 gnd.t190 sky130_fd_pr__nfet_01v8 ad=1.155 pd=7.33 as=1.155 ps=7.33 w=7 l=1
X1 a_n8964_8799.t39 plus.t5 a_n2903_n3924.t33 gnd.t4 sky130_fd_pr__nfet_01v8 ad=1.155 pd=7.33 as=1.155 ps=7.33 w=7 l=0.7
X2 a_n2804_13878.t28 a_n2982_13878.t51 a_n2982_13878.t52 vdd.t262 sky130_fd_pr__pfet_01v8 ad=1.485 pd=9.33 as=1.485 ps=9.33 w=9 l=0.5
X3 commonsourceibias.t35 commonsourceibias.t34 gnd.t336 gnd.t301 sky130_fd_pr__nfet_01v8 ad=1.155 pd=7.33 as=1.155 ps=7.33 w=7 l=1
X4 a_n2804_13878.t30 a_n2982_13878.t68 vdd.t275 vdd.t274 sky130_fd_pr__pfet_01v8 ad=1.485 pd=9.33 as=1.485 ps=9.33 w=9 l=0.5
X5 vdd.t203 a_n8964_8799.t44 CSoutput.t20 vdd.t148 sky130_fd_pr__pfet_01v8 ad=1.32 pd=8.33 as=1.32 ps=8.33 w=8 l=0.5
X6 outputibias.t7 outputibias.t6 gnd.t29 gnd.t28 sky130_fd_pr__nfet_01v8 ad=2.34 pd=12.78 as=2.34 ps=12.78 w=6 l=2
X7 gnd.t175 gnd.t173 gnd.t174 gnd.t83 sky130_fd_pr__nfet_01v8 ad=2.73 pd=14.78 as=0 ps=0 w=7 l=1
X8 gnd.t172 gnd.t170 plus.t4 gnd.t171 sky130_fd_pr__nfet_01v8 ad=0.165 pd=1.33 as=0.165 ps=1.33 w=1 l=0.5
X9 CSoutput.t22 a_n8964_8799.t45 vdd.t202 vdd.t88 sky130_fd_pr__pfet_01v8 ad=1.32 pd=8.33 as=1.32 ps=8.33 w=8 l=0.5
X10 a_n2903_n3924.t30 plus.t6 a_n8964_8799.t38 gnd.t25 sky130_fd_pr__nfet_01v8 ad=1.155 pd=7.33 as=1.155 ps=7.33 w=7 l=0.7
X11 gnd.t335 commonsourceibias.t81 CSoutput.t148 gnd.t295 sky130_fd_pr__nfet_01v8 ad=1.155 pd=7.33 as=1.155 ps=7.33 w=7 l=1
X12 CSoutput.t176 a_n2982_8322.t5 sky130_fd_pr__cap_mim_m3_1 l=12 w=12
X13 gnd.t334 commonsourceibias.t82 CSoutput.t147 gnd.t216 sky130_fd_pr__nfet_01v8 ad=1.155 pd=7.33 as=1.155 ps=7.33 w=7 l=1
X14 gnd.t333 commonsourceibias.t56 commonsourceibias.t57 gnd.t214 sky130_fd_pr__nfet_01v8 ad=1.155 pd=7.33 as=1.155 ps=7.33 w=7 l=1
X15 vdd.t201 a_n8964_8799.t46 CSoutput.t6 vdd.t136 sky130_fd_pr__pfet_01v8 ad=1.32 pd=8.33 as=1.32 ps=8.33 w=8 l=0.5
X16 gnd.t332 commonsourceibias.t83 CSoutput.t146 gnd.t214 sky130_fd_pr__nfet_01v8 ad=1.155 pd=7.33 as=1.155 ps=7.33 w=7 l=1
X17 a_n2903_n3924.t2 minus.t5 a_n2982_13878.t2 gnd.t2 sky130_fd_pr__nfet_01v8 ad=2.73 pd=14.78 as=1.155 ps=7.33 w=7 l=0.7
X18 a_n2982_8322.t37 a_n2982_13878.t69 a_n8964_8799.t14 vdd.t272 sky130_fd_pr__pfet_01v8 ad=1.485 pd=9.33 as=1.485 ps=9.33 w=9 l=0.5
X19 gnd.t331 commonsourceibias.t84 CSoutput.t145 gnd.t210 sky130_fd_pr__nfet_01v8 ad=1.155 pd=7.33 as=1.155 ps=7.33 w=7 l=1
X20 CSoutput.t161 a_n8964_8799.t47 vdd.t200 vdd.t110 sky130_fd_pr__pfet_01v8 ad=1.32 pd=8.33 as=1.32 ps=8.33 w=8 l=0.5
X21 output.t19 CSoutput.t177 vdd.t213 gnd.t51 sky130_fd_pr__nfet_01v8 ad=0.825 pd=5.33 as=0.825 ps=5.33 w=5 l=1
X22 vdd.t199 a_n8964_8799.t48 CSoutput.t15 vdd.t187 sky130_fd_pr__pfet_01v8 ad=1.32 pd=8.33 as=1.32 ps=8.33 w=8 l=0.5
X23 CSoutput.t169 a_n8964_8799.t49 vdd.t198 vdd.t115 sky130_fd_pr__pfet_01v8 ad=1.32 pd=8.33 as=1.32 ps=8.33 w=8 l=0.5
X24 outputibias.t5 outputibias.t4 gnd.t14 gnd.t13 sky130_fd_pr__nfet_01v8 ad=2.34 pd=12.78 as=2.34 ps=12.78 w=6 l=2
X25 gnd.t330 commonsourceibias.t85 CSoutput.t144 gnd.t227 sky130_fd_pr__nfet_01v8 ad=1.155 pd=7.33 as=1.155 ps=7.33 w=7 l=1
X26 vdd.t197 a_n8964_8799.t50 CSoutput.t11 vdd.t187 sky130_fd_pr__pfet_01v8 ad=1.32 pd=8.33 as=1.32 ps=8.33 w=8 l=0.5
X27 vdd.t196 a_n8964_8799.t51 CSoutput.t28 vdd.t141 sky130_fd_pr__pfet_01v8 ad=3.12 pd=16.78 as=1.32 ps=8.33 w=8 l=0.5
X28 a_n2982_13878.t64 minus.t6 a_n2903_n3924.t23 gnd.t176 sky130_fd_pr__nfet_01v8 ad=1.155 pd=7.33 as=1.155 ps=7.33 w=7 l=0.7
X29 gnd.t329 commonsourceibias.t54 commonsourceibias.t55 gnd.t237 sky130_fd_pr__nfet_01v8 ad=1.155 pd=7.33 as=1.155 ps=7.33 w=7 l=1
X30 a_n8964_8799.t43 a_n2982_13878.t70 a_n2982_8322.t36 vdd.t258 sky130_fd_pr__pfet_01v8 ad=1.485 pd=9.33 as=1.485 ps=9.33 w=9 l=0.5
X31 vdd.t195 a_n8964_8799.t52 CSoutput.t175 vdd.t80 sky130_fd_pr__pfet_01v8 ad=1.32 pd=8.33 as=1.32 ps=8.33 w=8 l=0.5
X32 a_n2982_13878.t61 minus.t7 a_n2903_n3924.t19 gnd.t61 sky130_fd_pr__nfet_01v8 ad=1.155 pd=7.33 as=1.155 ps=7.33 w=7 l=0.7
X33 vdd.t194 a_n8964_8799.t53 CSoutput.t35 vdd.t166 sky130_fd_pr__pfet_01v8 ad=1.32 pd=8.33 as=1.32 ps=8.33 w=8 l=0.5
X34 a_n8964_8799.t41 a_n2982_13878.t71 a_n2982_8322.t35 vdd.t221 sky130_fd_pr__pfet_01v8 ad=1.485 pd=9.33 as=3.51 ps=18.78 w=9 l=0.5
X35 CSoutput.t143 commonsourceibias.t86 gnd.t328 gnd.t204 sky130_fd_pr__nfet_01v8 ad=1.155 pd=7.33 as=1.155 ps=7.33 w=7 l=1
X36 a_n2903_n3924.t47 minus.t8 a_n2982_13878.t67 gnd.t30 sky130_fd_pr__nfet_01v8 ad=2.73 pd=14.78 as=1.155 ps=7.33 w=7 l=0.7
X37 gnd.t327 commonsourceibias.t52 commonsourceibias.t53 gnd.t291 sky130_fd_pr__nfet_01v8 ad=1.155 pd=7.33 as=1.155 ps=7.33 w=7 l=1
X38 CSoutput.t142 commonsourceibias.t87 gnd.t326 gnd.t199 sky130_fd_pr__nfet_01v8 ad=1.155 pd=7.33 as=1.155 ps=7.33 w=7 l=1
X39 vdd.t215 CSoutput.t178 output.t18 gnd.t50 sky130_fd_pr__nfet_01v8 ad=0.825 pd=5.33 as=0.825 ps=5.33 w=5 l=1
X40 CSoutput.t139 commonsourceibias.t88 gnd.t323 gnd.t197 sky130_fd_pr__nfet_01v8 ad=1.155 pd=7.33 as=1.155 ps=7.33 w=7 l=1
X41 CSoutput.t141 commonsourceibias.t89 gnd.t325 gnd.t195 sky130_fd_pr__nfet_01v8 ad=1.155 pd=7.33 as=1.155 ps=7.33 w=7 l=1
X42 a_n2903_n3924.t45 diffpairibias.t16 gnd.t339 gnd.t338 sky130_fd_pr__nfet_01v8 ad=2.73 pd=14.78 as=2.73 ps=14.78 w=7 l=1
X43 CSoutput.t160 a_n8964_8799.t54 vdd.t193 vdd.t124 sky130_fd_pr__pfet_01v8 ad=1.32 pd=8.33 as=1.32 ps=8.33 w=8 l=0.5
X44 vdd.t192 a_n8964_8799.t55 CSoutput.t43 vdd.t80 sky130_fd_pr__pfet_01v8 ad=1.32 pd=8.33 as=1.32 ps=8.33 w=8 l=0.5
X45 CSoutput.t140 commonsourceibias.t90 gnd.t324 gnd.t192 sky130_fd_pr__nfet_01v8 ad=1.155 pd=7.33 as=1.155 ps=7.33 w=7 l=1
X46 a_n2903_n3924.t34 plus.t7 a_n8964_8799.t37 gnd.t23 sky130_fd_pr__nfet_01v8 ad=1.155 pd=7.33 as=1.155 ps=7.33 w=7 l=0.7
X47 vdd.t191 a_n8964_8799.t56 CSoutput.t33 vdd.t136 sky130_fd_pr__pfet_01v8 ad=1.32 pd=8.33 as=1.32 ps=8.33 w=8 l=0.5
X48 gnd.t322 commonsourceibias.t50 commonsourceibias.t51 gnd.t249 sky130_fd_pr__nfet_01v8 ad=1.155 pd=7.33 as=1.155 ps=7.33 w=7 l=1
X49 outputibias.t3 outputibias.t2 gnd.t343 gnd.t342 sky130_fd_pr__nfet_01v8 ad=2.34 pd=12.78 as=2.34 ps=12.78 w=6 l=2
X50 output.t17 CSoutput.t179 vdd.t214 gnd.t49 sky130_fd_pr__nfet_01v8 ad=0.825 pd=5.33 as=0.825 ps=5.33 w=5 l=1
X51 a_n2804_13878.t27 a_n2982_13878.t57 a_n2982_13878.t58 vdd.t229 sky130_fd_pr__pfet_01v8 ad=1.485 pd=9.33 as=1.485 ps=9.33 w=9 l=0.5
X52 CSoutput.t151 commonsourceibias.t91 gnd.t309 gnd.t301 sky130_fd_pr__nfet_01v8 ad=1.155 pd=7.33 as=1.155 ps=7.33 w=7 l=1
X53 a_n2982_13878.t20 a_n2982_13878.t19 a_n2804_13878.t26 vdd.t242 sky130_fd_pr__pfet_01v8 ad=1.485 pd=9.33 as=1.485 ps=9.33 w=9 l=0.5
X54 commonsourceibias.t49 commonsourceibias.t48 gnd.t321 gnd.t274 sky130_fd_pr__nfet_01v8 ad=1.155 pd=7.33 as=2.73 ps=14.78 w=7 l=1
X55 CSoutput.t180 a_n2982_8322.t4 sky130_fd_pr__cap_mim_m3_1 l=12 w=12
X56 a_n8964_8799.t36 plus.t8 a_n2903_n3924.t39 gnd.t7 sky130_fd_pr__nfet_01v8 ad=1.155 pd=7.33 as=1.155 ps=7.33 w=7 l=0.7
X57 CSoutput.t13 a_n8964_8799.t57 vdd.t190 vdd.t115 sky130_fd_pr__pfet_01v8 ad=1.32 pd=8.33 as=1.32 ps=8.33 w=8 l=0.5
X58 vdd.t75 vdd.t73 vdd.t74 vdd.t50 sky130_fd_pr__pfet_01v8 ad=3.51 pd=18.78 as=0 ps=0 w=9 l=0.5
X59 vdd.t189 a_n8964_8799.t58 CSoutput.t71 vdd.t141 sky130_fd_pr__pfet_01v8 ad=3.12 pd=16.78 as=1.32 ps=8.33 w=8 l=0.5
X60 vdd.t188 a_n8964_8799.t59 CSoutput.t40 vdd.t187 sky130_fd_pr__pfet_01v8 ad=1.32 pd=8.33 as=1.32 ps=8.33 w=8 l=0.5
X61 diffpairibias.t15 diffpairibias.t14 gnd.t33 gnd.t32 sky130_fd_pr__nfet_01v8 ad=2.73 pd=14.78 as=2.73 ps=14.78 w=7 l=1
X62 a_n2982_13878.t12 minus.t9 a_n2903_n3924.t15 gnd.t27 sky130_fd_pr__nfet_01v8 ad=1.155 pd=7.33 as=1.155 ps=7.33 w=7 l=0.7
X63 a_n2982_13878.t18 a_n2982_13878.t17 a_n2804_13878.t25 vdd.t257 sky130_fd_pr__pfet_01v8 ad=1.485 pd=9.33 as=1.485 ps=9.33 w=9 l=0.5
X64 CSoutput.t38 a_n8964_8799.t60 vdd.t186 vdd.t164 sky130_fd_pr__pfet_01v8 ad=1.32 pd=8.33 as=1.32 ps=8.33 w=8 l=0.5
X65 gnd.t169 gnd.t167 gnd.t168 gnd.t83 sky130_fd_pr__nfet_01v8 ad=2.73 pd=14.78 as=0 ps=0 w=7 l=1
X66 vdd.t185 a_n8964_8799.t61 CSoutput.t21 vdd.t113 sky130_fd_pr__pfet_01v8 ad=1.32 pd=8.33 as=1.32 ps=8.33 w=8 l=0.5
X67 a_n8964_8799.t8 a_n2982_13878.t72 a_n2982_8322.t34 vdd.t252 sky130_fd_pr__pfet_01v8 ad=1.485 pd=9.33 as=1.485 ps=9.33 w=9 l=0.5
X68 CSoutput.t69 a_n8964_8799.t62 vdd.t184 vdd.t152 sky130_fd_pr__pfet_01v8 ad=1.32 pd=8.33 as=1.32 ps=8.33 w=8 l=0.5
X69 a_n2982_13878.t14 a_n2982_13878.t13 a_n2804_13878.t24 vdd.t273 sky130_fd_pr__pfet_01v8 ad=1.485 pd=9.33 as=1.485 ps=9.33 w=9 l=0.5
X70 vdd.t183 a_n8964_8799.t63 CSoutput.t165 vdd.t92 sky130_fd_pr__pfet_01v8 ad=1.32 pd=8.33 as=1.32 ps=8.33 w=8 l=0.5
X71 vdd.t182 a_n8964_8799.t64 CSoutput.t0 vdd.t166 sky130_fd_pr__pfet_01v8 ad=1.32 pd=8.33 as=1.32 ps=8.33 w=8 l=0.5
X72 a_n8964_8799.t13 a_n2982_13878.t73 a_n2982_8322.t33 vdd.t250 sky130_fd_pr__pfet_01v8 ad=1.485 pd=9.33 as=1.485 ps=9.33 w=9 l=0.5
X73 gnd.t320 commonsourceibias.t92 CSoutput.t157 gnd.t295 sky130_fd_pr__nfet_01v8 ad=1.155 pd=7.33 as=1.155 ps=7.33 w=7 l=1
X74 plus.t3 gnd.t164 gnd.t166 gnd.t165 sky130_fd_pr__nfet_01v8 ad=0.165 pd=1.33 as=0.165 ps=1.33 w=1 l=0.5
X75 diffpairibias.t13 diffpairibias.t12 gnd.t349 gnd.t348 sky130_fd_pr__nfet_01v8 ad=2.73 pd=14.78 as=2.73 ps=14.78 w=7 l=1
X76 gnd.t319 commonsourceibias.t93 CSoutput.t156 gnd.t178 sky130_fd_pr__nfet_01v8 ad=1.155 pd=7.33 as=1.155 ps=7.33 w=7 l=1
X77 CSoutput.t27 a_n8964_8799.t65 vdd.t181 vdd.t95 sky130_fd_pr__pfet_01v8 ad=1.32 pd=8.33 as=1.32 ps=8.33 w=8 l=0.5
X78 output.t16 CSoutput.t181 vdd.t211 gnd.t48 sky130_fd_pr__nfet_01v8 ad=0.825 pd=5.33 as=0.825 ps=5.33 w=5 l=1
X79 commonsourceibias.t69 commonsourceibias.t68 gnd.t318 gnd.t204 sky130_fd_pr__nfet_01v8 ad=1.155 pd=7.33 as=1.155 ps=7.33 w=7 l=1
X80 a_n8964_8799.t11 a_n2982_13878.t74 a_n2982_8322.t32 vdd.t265 sky130_fd_pr__pfet_01v8 ad=1.485 pd=9.33 as=1.485 ps=9.33 w=9 l=0.5
X81 gnd.t163 gnd.t161 gnd.t162 gnd.t95 sky130_fd_pr__nfet_01v8 ad=2.73 pd=14.78 as=0 ps=0 w=7 l=0.7
X82 gnd.t317 commonsourceibias.t94 CSoutput.t155 gnd.t291 sky130_fd_pr__nfet_01v8 ad=1.155 pd=7.33 as=1.155 ps=7.33 w=7 l=1
X83 a_n2982_8322.t31 a_n2982_13878.t75 a_n8964_8799.t17 vdd.t273 sky130_fd_pr__pfet_01v8 ad=1.485 pd=9.33 as=1.485 ps=9.33 w=9 l=0.5
X84 CSoutput.t19 a_n8964_8799.t66 vdd.t180 vdd.t128 sky130_fd_pr__pfet_01v8 ad=1.32 pd=8.33 as=1.32 ps=8.33 w=8 l=0.5
X85 commonsourceibias.t67 commonsourceibias.t66 gnd.t316 gnd.t240 sky130_fd_pr__nfet_01v8 ad=1.155 pd=7.33 as=1.155 ps=7.33 w=7 l=1
X86 gnd.t315 commonsourceibias.t95 CSoutput.t154 gnd.t227 sky130_fd_pr__nfet_01v8 ad=1.155 pd=7.33 as=1.155 ps=7.33 w=7 l=1
X87 output.t15 CSoutput.t182 vdd.t212 gnd.t47 sky130_fd_pr__nfet_01v8 ad=1.95 pd=10.78 as=0.825 ps=5.33 w=5 l=1
X88 commonsourceibias.t65 commonsourceibias.t64 gnd.t314 gnd.t182 sky130_fd_pr__nfet_01v8 ad=1.155 pd=7.33 as=1.155 ps=7.33 w=7 l=1
X89 gnd.t312 commonsourceibias.t96 CSoutput.t152 gnd.t287 sky130_fd_pr__nfet_01v8 ad=1.155 pd=7.33 as=1.155 ps=7.33 w=7 l=1
X90 a_n2903_n3924.t42 plus.t9 a_n8964_8799.t35 gnd.t177 sky130_fd_pr__nfet_01v8 ad=1.155 pd=7.33 as=1.155 ps=7.33 w=7 l=0.7
X91 CSoutput.t153 commonsourceibias.t97 gnd.t313 gnd.t284 sky130_fd_pr__nfet_01v8 ad=1.155 pd=7.33 as=1.155 ps=7.33 w=7 l=1
X92 vdd.t72 vdd.t70 vdd.t71 vdd.t46 sky130_fd_pr__pfet_01v8 ad=3.12 pd=16.78 as=0 ps=0 w=8 l=0.5
X93 gnd.t311 commonsourceibias.t62 commonsourceibias.t63 gnd.t287 sky130_fd_pr__nfet_01v8 ad=1.155 pd=7.33 as=1.155 ps=7.33 w=7 l=1
X94 a_n2903_n3924.t6 diffpairibias.t17 gnd.t9 gnd.t8 sky130_fd_pr__nfet_01v8 ad=2.73 pd=14.78 as=2.73 ps=14.78 w=7 l=1
X95 CSoutput.t183 a_n2982_8322.t3 sky130_fd_pr__cap_mim_m3_1 l=12 w=12
X96 vdd.t179 a_n8964_8799.t67 CSoutput.t172 vdd.t139 sky130_fd_pr__pfet_01v8 ad=1.32 pd=8.33 as=1.32 ps=8.33 w=8 l=0.5
X97 vdd.t178 a_n8964_8799.t68 CSoutput.t54 vdd.t170 sky130_fd_pr__pfet_01v8 ad=1.32 pd=8.33 as=1.32 ps=8.33 w=8 l=0.5
X98 a_n2982_13878.t40 a_n2982_13878.t39 a_n2804_13878.t23 vdd.t272 sky130_fd_pr__pfet_01v8 ad=1.485 pd=9.33 as=1.485 ps=9.33 w=9 l=0.5
X99 vdd.t177 a_n8964_8799.t69 CSoutput.t44 vdd.t146 sky130_fd_pr__pfet_01v8 ad=1.32 pd=8.33 as=1.32 ps=8.33 w=8 l=0.5
X100 a_n8964_8799.t3 a_n2982_13878.t76 a_n2982_8322.t30 vdd.t261 sky130_fd_pr__pfet_01v8 ad=1.485 pd=9.33 as=1.485 ps=9.33 w=9 l=0.5
X101 a_n2982_13878.t56 a_n2982_13878.t55 a_n2804_13878.t22 vdd.t224 sky130_fd_pr__pfet_01v8 ad=3.51 pd=18.78 as=1.485 ps=9.33 w=9 l=0.5
X102 gnd.t310 commonsourceibias.t60 commonsourceibias.t61 gnd.t272 sky130_fd_pr__nfet_01v8 ad=2.73 pd=14.78 as=1.155 ps=7.33 w=7 l=1
X103 commonsourceibias.t59 commonsourceibias.t58 gnd.t308 gnd.t192 sky130_fd_pr__nfet_01v8 ad=1.155 pd=7.33 as=1.155 ps=7.33 w=7 l=1
X104 CSoutput.t150 commonsourceibias.t98 gnd.t307 gnd.t197 sky130_fd_pr__nfet_01v8 ad=1.155 pd=7.33 as=1.155 ps=7.33 w=7 l=1
X105 CSoutput.t4 a_n8964_8799.t70 vdd.t176 vdd.t164 sky130_fd_pr__pfet_01v8 ad=1.32 pd=8.33 as=1.32 ps=8.33 w=8 l=0.5
X106 CSoutput.t149 commonsourceibias.t99 gnd.t306 gnd.t269 sky130_fd_pr__nfet_01v8 ad=1.155 pd=7.33 as=1.155 ps=7.33 w=7 l=1
X107 vdd.t208 CSoutput.t184 output.t14 gnd.t46 sky130_fd_pr__nfet_01v8 ad=0.825 pd=5.33 as=1.95 ps=10.78 w=5 l=1
X108 a_n2982_13878.t63 minus.t10 a_n2903_n3924.t22 gnd.t52 sky130_fd_pr__nfet_01v8 ad=1.155 pd=7.33 as=1.155 ps=7.33 w=7 l=0.7
X109 vdd.t69 vdd.t67 vdd.t68 vdd.t57 sky130_fd_pr__pfet_01v8 ad=3.51 pd=18.78 as=0 ps=0 w=9 l=0.5
X110 CSoutput.t86 commonsourceibias.t100 gnd.t305 gnd.t278 sky130_fd_pr__nfet_01v8 ad=1.155 pd=7.33 as=1.155 ps=7.33 w=7 l=1
X111 CSoutput.t25 a_n8964_8799.t71 vdd.t175 vdd.t95 sky130_fd_pr__pfet_01v8 ad=1.32 pd=8.33 as=1.32 ps=8.33 w=8 l=0.5
X112 vdd.t66 vdd.t63 vdd.t65 vdd.t64 sky130_fd_pr__pfet_01v8 ad=3.51 pd=18.78 as=0 ps=0 w=9 l=0.5
X113 gnd.t273 commonsourceibias.t101 CSoutput.t108 gnd.t272 sky130_fd_pr__nfet_01v8 ad=2.73 pd=14.78 as=1.155 ps=7.33 w=7 l=1
X114 commonsourceibias.t11 commonsourceibias.t10 gnd.t304 gnd.t225 sky130_fd_pr__nfet_01v8 ad=1.155 pd=7.33 as=1.155 ps=7.33 w=7 l=1
X115 CSoutput.t85 commonsourceibias.t102 gnd.t303 gnd.t274 sky130_fd_pr__nfet_01v8 ad=1.155 pd=7.33 as=2.73 ps=14.78 w=7 l=1
X116 a_n2804_13878.t21 a_n2982_13878.t49 a_n2982_13878.t50 vdd.t234 sky130_fd_pr__pfet_01v8 ad=1.485 pd=9.33 as=3.51 ps=18.78 w=9 l=0.5
X117 a_n2903_n3924.t5 minus.t11 a_n2982_13878.t5 gnd.t5 sky130_fd_pr__nfet_01v8 ad=1.155 pd=7.33 as=1.155 ps=7.33 w=7 l=0.7
X118 CSoutput.t84 commonsourceibias.t103 gnd.t302 gnd.t301 sky130_fd_pr__nfet_01v8 ad=1.155 pd=7.33 as=1.155 ps=7.33 w=7 l=1
X119 CSoutput.t39 a_n8964_8799.t72 vdd.t174 vdd.t76 sky130_fd_pr__pfet_01v8 ad=1.32 pd=8.33 as=1.32 ps=8.33 w=8 l=0.5
X120 vdd.t173 a_n8964_8799.t73 CSoutput.t26 vdd.t170 sky130_fd_pr__pfet_01v8 ad=1.32 pd=8.33 as=1.32 ps=8.33 w=8 l=0.5
X121 vdd.t271 a_n2982_13878.t77 a_n2982_8322.t13 vdd.t270 sky130_fd_pr__pfet_01v8 ad=1.485 pd=9.33 as=1.485 ps=9.33 w=9 l=0.5
X122 a_n2982_13878.t22 a_n2982_13878.t21 a_n2804_13878.t20 vdd.t232 sky130_fd_pr__pfet_01v8 ad=1.485 pd=9.33 as=1.485 ps=9.33 w=9 l=0.5
X123 a_n2982_8322.t12 a_n2982_13878.t78 vdd.t269 vdd.t268 sky130_fd_pr__pfet_01v8 ad=1.485 pd=9.33 as=1.485 ps=9.33 w=9 l=0.5
X124 a_n2903_n3924.t8 diffpairibias.t18 gnd.t12 gnd.t11 sky130_fd_pr__nfet_01v8 ad=2.73 pd=14.78 as=2.73 ps=14.78 w=7 l=1
X125 CSoutput.t18 a_n8964_8799.t74 vdd.t172 vdd.t128 sky130_fd_pr__pfet_01v8 ad=1.32 pd=8.33 as=1.32 ps=8.33 w=8 l=0.5
X126 gnd.t160 gnd.t158 gnd.t159 gnd.t106 sky130_fd_pr__nfet_01v8 ad=2.73 pd=14.78 as=0 ps=0 w=7 l=0.7
X127 gnd.t271 commonsourceibias.t104 CSoutput.t107 gnd.t247 sky130_fd_pr__nfet_01v8 ad=1.155 pd=7.33 as=1.155 ps=7.33 w=7 l=1
X128 a_n2903_n3924.t7 minus.t12 a_n2982_13878.t6 gnd.t10 sky130_fd_pr__nfet_01v8 ad=1.155 pd=7.33 as=1.155 ps=7.33 w=7 l=0.7
X129 commonsourceibias.t9 commonsourceibias.t8 gnd.t300 gnd.t278 sky130_fd_pr__nfet_01v8 ad=1.155 pd=7.33 as=1.155 ps=7.33 w=7 l=1
X130 commonsourceibias.t7 commonsourceibias.t6 gnd.t299 gnd.t195 sky130_fd_pr__nfet_01v8 ad=1.155 pd=7.33 as=1.155 ps=7.33 w=7 l=1
X131 vdd.t267 a_n2982_13878.t79 a_n2804_13878.t3 vdd.t266 sky130_fd_pr__pfet_01v8 ad=1.485 pd=9.33 as=1.485 ps=9.33 w=9 l=0.5
X132 a_n2982_13878.t1 minus.t13 a_n2903_n3924.t1 gnd.t1 sky130_fd_pr__nfet_01v8 ad=1.155 pd=7.33 as=2.73 ps=14.78 w=7 l=0.7
X133 vdd.t62 vdd.t60 vdd.t61 vdd.t46 sky130_fd_pr__pfet_01v8 ad=3.12 pd=16.78 as=0 ps=0 w=8 l=0.5
X134 a_n2903_n3924.t40 plus.t10 a_n8964_8799.t34 gnd.t0 sky130_fd_pr__nfet_01v8 ad=1.155 pd=7.33 as=1.155 ps=7.33 w=7 l=0.7
X135 a_n2903_n3924.t35 plus.t11 a_n8964_8799.t33 gnd.t6 sky130_fd_pr__nfet_01v8 ad=1.155 pd=7.33 as=1.155 ps=7.33 w=7 l=0.7
X136 vdd.t59 vdd.t56 vdd.t58 vdd.t57 sky130_fd_pr__pfet_01v8 ad=3.51 pd=18.78 as=0 ps=0 w=9 l=0.5
X137 gnd.t298 commonsourceibias.t4 commonsourceibias.t5 gnd.t216 sky130_fd_pr__nfet_01v8 ad=1.155 pd=7.33 as=1.155 ps=7.33 w=7 l=1
X138 a_n2804_13878.t19 a_n2982_13878.t47 a_n2982_13878.t48 vdd.t265 sky130_fd_pr__pfet_01v8 ad=1.485 pd=9.33 as=1.485 ps=9.33 w=9 l=0.5
X139 vdd.t171 a_n8964_8799.t75 CSoutput.t2 vdd.t170 sky130_fd_pr__pfet_01v8 ad=1.32 pd=8.33 as=1.32 ps=8.33 w=8 l=0.5
X140 vdd.t169 a_n8964_8799.t76 CSoutput.t72 vdd.t146 sky130_fd_pr__pfet_01v8 ad=1.32 pd=8.33 as=1.32 ps=8.33 w=8 l=0.5
X141 gnd.t297 commonsourceibias.t105 CSoutput.t83 gnd.t178 sky130_fd_pr__nfet_01v8 ad=1.155 pd=7.33 as=1.155 ps=7.33 w=7 l=1
X142 a_n2982_8322.t29 a_n2982_13878.t80 a_n8964_8799.t40 vdd.t251 sky130_fd_pr__pfet_01v8 ad=1.485 pd=9.33 as=1.485 ps=9.33 w=9 l=0.5
X143 gnd.t296 commonsourceibias.t2 commonsourceibias.t3 gnd.t295 sky130_fd_pr__nfet_01v8 ad=1.155 pd=7.33 as=1.155 ps=7.33 w=7 l=1
X144 outputibias.t1 outputibias.t0 gnd.t16 gnd.t15 sky130_fd_pr__nfet_01v8 ad=2.34 pd=12.78 as=2.34 ps=12.78 w=6 l=2
X145 a_n8964_8799.t32 plus.t12 a_n2903_n3924.t37 gnd.t24 sky130_fd_pr__nfet_01v8 ad=1.155 pd=7.33 as=1.155 ps=7.33 w=7 l=0.7
X146 a_n8964_8799.t31 plus.t13 a_n2903_n3924.t26 gnd.t3 sky130_fd_pr__nfet_01v8 ad=1.155 pd=7.33 as=2.73 ps=14.78 w=7 l=0.7
X147 vdd.t55 vdd.t53 vdd.t54 vdd.t23 sky130_fd_pr__pfet_01v8 ad=3.12 pd=16.78 as=0 ps=0 w=8 l=0.5
X148 vdd.t52 vdd.t49 vdd.t51 vdd.t50 sky130_fd_pr__pfet_01v8 ad=3.51 pd=18.78 as=0 ps=0 w=9 l=0.5
X149 a_n2982_8322.t11 a_n2982_13878.t81 vdd.t264 vdd.t263 sky130_fd_pr__pfet_01v8 ad=3.51 pd=18.78 as=1.485 ps=9.33 w=9 l=0.5
X150 a_n8964_8799.t12 a_n2982_13878.t82 a_n2982_8322.t28 vdd.t231 sky130_fd_pr__pfet_01v8 ad=1.485 pd=9.33 as=1.485 ps=9.33 w=9 l=0.5
X151 commonsourceibias.t1 commonsourceibias.t0 gnd.t294 gnd.t231 sky130_fd_pr__nfet_01v8 ad=1.155 pd=7.33 as=1.155 ps=7.33 w=7 l=1
X152 gnd.t293 commonsourceibias.t106 CSoutput.t82 gnd.t234 sky130_fd_pr__nfet_01v8 ad=1.155 pd=7.33 as=1.155 ps=7.33 w=7 l=1
X153 gnd.t292 commonsourceibias.t107 CSoutput.t81 gnd.t291 sky130_fd_pr__nfet_01v8 ad=1.155 pd=7.33 as=1.155 ps=7.33 w=7 l=1
X154 gnd.t290 commonsourceibias.t108 CSoutput.t80 gnd.t245 sky130_fd_pr__nfet_01v8 ad=2.73 pd=14.78 as=1.155 ps=7.33 w=7 l=1
X155 CSoutput.t68 a_n8964_8799.t77 vdd.t168 vdd.t103 sky130_fd_pr__pfet_01v8 ad=1.32 pd=8.33 as=1.32 ps=8.33 w=8 l=0.5
X156 diffpairibias.t11 diffpairibias.t10 gnd.t347 gnd.t346 sky130_fd_pr__nfet_01v8 ad=2.73 pd=14.78 as=2.73 ps=14.78 w=7 l=1
X157 vdd.t167 a_n8964_8799.t78 CSoutput.t10 vdd.t166 sky130_fd_pr__pfet_01v8 ad=1.32 pd=8.33 as=1.32 ps=8.33 w=8 l=0.5
X158 a_n2982_13878.t62 minus.t14 a_n2903_n3924.t20 gnd.t31 sky130_fd_pr__nfet_01v8 ad=1.155 pd=7.33 as=1.155 ps=7.33 w=7 l=0.7
X159 a_n2982_13878.t46 a_n2982_13878.t45 a_n2804_13878.t18 vdd.t245 sky130_fd_pr__pfet_01v8 ad=1.485 pd=9.33 as=1.485 ps=9.33 w=9 l=0.5
X160 a_n8964_8799.t19 a_n2982_13878.t83 a_n2982_8322.t27 vdd.t262 sky130_fd_pr__pfet_01v8 ad=1.485 pd=9.33 as=1.485 ps=9.33 w=9 l=0.5
X161 CSoutput.t37 a_n8964_8799.t79 vdd.t165 vdd.t164 sky130_fd_pr__pfet_01v8 ad=1.32 pd=8.33 as=1.32 ps=8.33 w=8 l=0.5
X162 CSoutput.t171 a_n8964_8799.t80 vdd.t163 vdd.t134 sky130_fd_pr__pfet_01v8 ad=1.32 pd=8.33 as=1.32 ps=8.33 w=8 l=0.5
X163 gnd.t289 commonsourceibias.t109 CSoutput.t97 gnd.t257 sky130_fd_pr__nfet_01v8 ad=1.155 pd=7.33 as=1.155 ps=7.33 w=7 l=1
X164 a_n2804_13878.t17 a_n2982_13878.t23 a_n2982_13878.t24 vdd.t261 sky130_fd_pr__pfet_01v8 ad=1.485 pd=9.33 as=1.485 ps=9.33 w=9 l=0.5
X165 output.t3 outputibias.t8 gnd.t58 gnd.t57 sky130_fd_pr__nfet_01v8 ad=2.34 pd=12.78 as=2.34 ps=12.78 w=6 l=2
X166 gnd.t157 gnd.t155 minus.t4 gnd.t156 sky130_fd_pr__nfet_01v8 ad=0.165 pd=1.33 as=0.39 ps=2.78 w=1 l=0.5
X167 a_n2903_n3924.t14 minus.t15 a_n2982_13878.t11 gnd.t26 sky130_fd_pr__nfet_01v8 ad=1.155 pd=7.33 as=1.155 ps=7.33 w=7 l=0.7
X168 gnd.t288 commonsourceibias.t110 CSoutput.t96 gnd.t287 sky130_fd_pr__nfet_01v8 ad=1.155 pd=7.33 as=1.155 ps=7.33 w=7 l=1
X169 CSoutput.t95 commonsourceibias.t111 gnd.t286 gnd.t284 sky130_fd_pr__nfet_01v8 ad=1.155 pd=7.33 as=1.155 ps=7.33 w=7 l=1
X170 commonsourceibias.t13 commonsourceibias.t12 gnd.t285 gnd.t284 sky130_fd_pr__nfet_01v8 ad=1.155 pd=7.33 as=1.155 ps=7.33 w=7 l=1
X171 vdd.t48 vdd.t45 vdd.t47 vdd.t46 sky130_fd_pr__pfet_01v8 ad=3.12 pd=16.78 as=0 ps=0 w=8 l=0.5
X172 vdd.t44 vdd.t42 vdd.t43 vdd.t19 sky130_fd_pr__pfet_01v8 ad=3.12 pd=16.78 as=0 ps=0 w=8 l=0.5
X173 vdd.t41 vdd.t39 vdd.t40 vdd.t5 sky130_fd_pr__pfet_01v8 ad=3.51 pd=18.78 as=0 ps=0 w=9 l=0.5
X174 CSoutput.t52 a_n8964_8799.t81 vdd.t162 vdd.t152 sky130_fd_pr__pfet_01v8 ad=1.32 pd=8.33 as=1.32 ps=8.33 w=8 l=0.5
X175 gnd.t283 commonsourceibias.t112 CSoutput.t94 gnd.t186 sky130_fd_pr__nfet_01v8 ad=1.155 pd=7.33 as=1.155 ps=7.33 w=7 l=1
X176 vdd.t260 a_n2982_13878.t84 a_n2982_8322.t10 vdd.t259 sky130_fd_pr__pfet_01v8 ad=1.485 pd=9.33 as=3.51 ps=18.78 w=9 l=0.5
X177 a_n2804_13878.t16 a_n2982_13878.t15 a_n2982_13878.t16 vdd.t258 sky130_fd_pr__pfet_01v8 ad=1.485 pd=9.33 as=1.485 ps=9.33 w=9 l=0.5
X178 CSoutput.t93 commonsourceibias.t113 gnd.t282 gnd.t208 sky130_fd_pr__nfet_01v8 ad=1.155 pd=7.33 as=1.155 ps=7.33 w=7 l=1
X179 vdd.t161 a_n8964_8799.t82 CSoutput.t42 vdd.t150 sky130_fd_pr__pfet_01v8 ad=3.12 pd=16.78 as=1.32 ps=8.33 w=8 l=0.5
X180 vdd.t160 a_n8964_8799.t83 CSoutput.t73 vdd.t148 sky130_fd_pr__pfet_01v8 ad=1.32 pd=8.33 as=1.32 ps=8.33 w=8 l=0.5
X181 a_n2982_13878.t28 a_n2982_13878.t27 a_n2804_13878.t15 vdd.t228 sky130_fd_pr__pfet_01v8 ad=1.485 pd=9.33 as=1.485 ps=9.33 w=9 l=0.5
X182 a_n2903_n3924.t41 plus.t14 a_n8964_8799.t30 gnd.t2 sky130_fd_pr__nfet_01v8 ad=2.73 pd=14.78 as=1.155 ps=7.33 w=7 l=0.7
X183 gnd.t154 gnd.t152 minus.t3 gnd.t153 sky130_fd_pr__nfet_01v8 ad=0.165 pd=1.33 as=0.165 ps=1.33 w=1 l=0.5
X184 vdd.t159 a_n8964_8799.t84 CSoutput.t65 vdd.t105 sky130_fd_pr__pfet_01v8 ad=1.32 pd=8.33 as=1.32 ps=8.33 w=8 l=0.5
X185 CSoutput.t92 commonsourceibias.t114 gnd.t281 gnd.t269 sky130_fd_pr__nfet_01v8 ad=1.155 pd=7.33 as=1.155 ps=7.33 w=7 l=1
X186 a_n2903_n3924.t9 diffpairibias.t19 gnd.t18 gnd.t17 sky130_fd_pr__nfet_01v8 ad=2.73 pd=14.78 as=2.73 ps=14.78 w=7 l=1
X187 gnd.t151 gnd.t148 gnd.t150 gnd.t149 sky130_fd_pr__nfet_01v8 ad=2.73 pd=14.78 as=0 ps=0 w=7 l=1
X188 a_n2903_n3924.t17 diffpairibias.t20 gnd.t56 gnd.t55 sky130_fd_pr__nfet_01v8 ad=2.73 pd=14.78 as=2.73 ps=14.78 w=7 l=1
X189 vdd.t205 CSoutput.t185 output.t13 gnd.t45 sky130_fd_pr__nfet_01v8 ad=0.825 pd=5.33 as=0.825 ps=5.33 w=5 l=1
X190 vdd.t158 a_n8964_8799.t85 CSoutput.t76 vdd.t150 sky130_fd_pr__pfet_01v8 ad=3.12 pd=16.78 as=1.32 ps=8.33 w=8 l=0.5
X191 CSoutput.t91 commonsourceibias.t115 gnd.t280 gnd.t188 sky130_fd_pr__nfet_01v8 ad=1.155 pd=7.33 as=1.155 ps=7.33 w=7 l=1
X192 CSoutput.t90 commonsourceibias.t116 gnd.t279 gnd.t278 sky130_fd_pr__nfet_01v8 ad=1.155 pd=7.33 as=1.155 ps=7.33 w=7 l=1
X193 vdd.t157 a_n8964_8799.t86 CSoutput.t64 vdd.t139 sky130_fd_pr__pfet_01v8 ad=1.32 pd=8.33 as=1.32 ps=8.33 w=8 l=0.5
X194 a_n8964_8799.t29 plus.t15 a_n2903_n3924.t28 gnd.t176 sky130_fd_pr__nfet_01v8 ad=1.155 pd=7.33 as=1.155 ps=7.33 w=7 l=0.7
X195 CSoutput.t14 a_n8964_8799.t87 vdd.t156 vdd.t90 sky130_fd_pr__pfet_01v8 ad=1.32 pd=8.33 as=3.12 ps=16.78 w=8 l=0.5
X196 gnd.t277 commonsourceibias.t117 CSoutput.t89 gnd.t272 sky130_fd_pr__nfet_01v8 ad=2.73 pd=14.78 as=1.155 ps=7.33 w=7 l=1
X197 gnd.t276 commonsourceibias.t118 CSoutput.t88 gnd.t249 sky130_fd_pr__nfet_01v8 ad=1.155 pd=7.33 as=1.155 ps=7.33 w=7 l=1
X198 CSoutput.t87 commonsourceibias.t119 gnd.t275 gnd.t274 sky130_fd_pr__nfet_01v8 ad=1.155 pd=7.33 as=2.73 ps=14.78 w=7 l=1
X199 vdd.t38 vdd.t36 vdd.t37 vdd.t23 sky130_fd_pr__pfet_01v8 ad=3.12 pd=16.78 as=0 ps=0 w=8 l=0.5
X200 commonsourceibias.t19 commonsourceibias.t18 gnd.t270 gnd.t269 sky130_fd_pr__nfet_01v8 ad=1.155 pd=7.33 as=1.155 ps=7.33 w=7 l=1
X201 CSoutput.t106 commonsourceibias.t120 gnd.t268 gnd.t223 sky130_fd_pr__nfet_01v8 ad=1.155 pd=7.33 as=1.155 ps=7.33 w=7 l=1
X202 gnd.t147 gnd.t145 gnd.t146 gnd.t73 sky130_fd_pr__nfet_01v8 ad=2.73 pd=14.78 as=0 ps=0 w=7 l=1
X203 a_n2804_13878.t14 a_n2982_13878.t37 a_n2982_13878.t38 vdd.t233 sky130_fd_pr__pfet_01v8 ad=1.485 pd=9.33 as=1.485 ps=9.33 w=9 l=0.5
X204 gnd.t144 gnd.t141 gnd.t143 gnd.t142 sky130_fd_pr__nfet_01v8 ad=2.34 pd=12.78 as=0 ps=0 w=6 l=2
X205 a_n2982_8322.t26 a_n2982_13878.t85 a_n8964_8799.t6 vdd.t257 sky130_fd_pr__pfet_01v8 ad=1.485 pd=9.33 as=1.485 ps=9.33 w=9 l=0.5
X206 CSoutput.t163 a_n8964_8799.t88 vdd.t155 vdd.t134 sky130_fd_pr__pfet_01v8 ad=1.32 pd=8.33 as=1.32 ps=8.33 w=8 l=0.5
X207 CSoutput.t166 a_n8964_8799.t89 vdd.t154 vdd.t78 sky130_fd_pr__pfet_01v8 ad=1.32 pd=8.33 as=1.32 ps=8.33 w=8 l=0.5
X208 gnd.t267 commonsourceibias.t121 CSoutput.t105 gnd.t247 sky130_fd_pr__nfet_01v8 ad=1.155 pd=7.33 as=1.155 ps=7.33 w=7 l=1
X209 gnd.t140 gnd.t138 gnd.t139 gnd.t102 sky130_fd_pr__nfet_01v8 ad=2.73 pd=14.78 as=0 ps=0 w=7 l=1
X210 CSoutput.t104 commonsourceibias.t122 gnd.t266 gnd.t240 sky130_fd_pr__nfet_01v8 ad=1.155 pd=7.33 as=1.155 ps=7.33 w=7 l=1
X211 diffpairibias.t9 diffpairibias.t8 gnd.t351 gnd.t350 sky130_fd_pr__nfet_01v8 ad=2.73 pd=14.78 as=2.73 ps=14.78 w=7 l=1
X212 a_n2804_13878.t1 a_n2982_13878.t86 vdd.t256 vdd.t255 sky130_fd_pr__pfet_01v8 ad=1.485 pd=9.33 as=1.485 ps=9.33 w=9 l=0.5
X213 vdd.t254 a_n2982_13878.t87 a_n2804_13878.t0 vdd.t253 sky130_fd_pr__pfet_01v8 ad=1.485 pd=9.33 as=1.485 ps=9.33 w=9 l=0.5
X214 CSoutput.t1 a_n8964_8799.t90 vdd.t153 vdd.t152 sky130_fd_pr__pfet_01v8 ad=1.32 pd=8.33 as=1.32 ps=8.33 w=8 l=0.5
X215 vdd.t151 a_n8964_8799.t91 CSoutput.t12 vdd.t150 sky130_fd_pr__pfet_01v8 ad=3.12 pd=16.78 as=1.32 ps=8.33 w=8 l=0.5
X216 vdd.t149 a_n8964_8799.t92 CSoutput.t167 vdd.t148 sky130_fd_pr__pfet_01v8 ad=1.32 pd=8.33 as=1.32 ps=8.33 w=8 l=0.5
X217 vdd.t147 a_n8964_8799.t93 CSoutput.t45 vdd.t146 sky130_fd_pr__pfet_01v8 ad=1.32 pd=8.33 as=1.32 ps=8.33 w=8 l=0.5
X218 gnd.t265 commonsourceibias.t123 CSoutput.t103 gnd.t237 sky130_fd_pr__nfet_01v8 ad=1.155 pd=7.33 as=1.155 ps=7.33 w=7 l=1
X219 CSoutput.t102 commonsourceibias.t124 gnd.t264 gnd.t184 sky130_fd_pr__nfet_01v8 ad=1.155 pd=7.33 as=2.73 ps=14.78 w=7 l=1
X220 CSoutput.t34 a_n8964_8799.t94 vdd.t145 vdd.t121 sky130_fd_pr__pfet_01v8 ad=1.32 pd=8.33 as=1.32 ps=8.33 w=8 l=0.5
X221 a_n2804_13878.t13 a_n2982_13878.t59 a_n2982_13878.t60 vdd.t252 sky130_fd_pr__pfet_01v8 ad=1.485 pd=9.33 as=1.485 ps=9.33 w=9 l=0.5
X222 gnd.t263 commonsourceibias.t16 commonsourceibias.t17 gnd.t206 sky130_fd_pr__nfet_01v8 ad=1.155 pd=7.33 as=1.155 ps=7.33 w=7 l=1
X223 gnd.t262 commonsourceibias.t125 CSoutput.t101 gnd.t234 sky130_fd_pr__nfet_01v8 ad=1.155 pd=7.33 as=1.155 ps=7.33 w=7 l=1
X224 gnd.t261 commonsourceibias.t126 CSoutput.t100 gnd.t245 sky130_fd_pr__nfet_01v8 ad=2.73 pd=14.78 as=1.155 ps=7.33 w=7 l=1
X225 a_n2903_n3924.t11 minus.t16 a_n2982_13878.t8 gnd.t23 sky130_fd_pr__nfet_01v8 ad=1.155 pd=7.33 as=1.155 ps=7.33 w=7 l=0.7
X226 vdd.t144 a_n8964_8799.t95 CSoutput.t23 vdd.t105 sky130_fd_pr__pfet_01v8 ad=1.32 pd=8.33 as=1.32 ps=8.33 w=8 l=0.5
X227 gnd.t260 commonsourceibias.t127 CSoutput.t99 gnd.t257 sky130_fd_pr__nfet_01v8 ad=1.155 pd=7.33 as=1.155 ps=7.33 w=7 l=1
X228 a_n2982_8322.t25 a_n2982_13878.t88 a_n8964_8799.t16 vdd.t220 sky130_fd_pr__pfet_01v8 ad=1.485 pd=9.33 as=1.485 ps=9.33 w=9 l=0.5
X229 a_n2982_13878.t32 a_n2982_13878.t31 a_n2804_13878.t12 vdd.t251 sky130_fd_pr__pfet_01v8 ad=1.485 pd=9.33 as=1.485 ps=9.33 w=9 l=0.5
X230 vdd.t204 CSoutput.t186 output.t12 gnd.t44 sky130_fd_pr__nfet_01v8 ad=0.825 pd=5.33 as=0.825 ps=5.33 w=5 l=1
X231 CSoutput.t70 a_n8964_8799.t96 vdd.t143 vdd.t108 sky130_fd_pr__pfet_01v8 ad=1.32 pd=8.33 as=3.12 ps=16.78 w=8 l=0.5
X232 diffpairibias.t7 diffpairibias.t6 gnd.t65 gnd.t64 sky130_fd_pr__nfet_01v8 ad=2.73 pd=14.78 as=2.73 ps=14.78 w=7 l=1
X233 CSoutput.t98 commonsourceibias.t128 gnd.t259 gnd.t231 sky130_fd_pr__nfet_01v8 ad=1.155 pd=7.33 as=1.155 ps=7.33 w=7 l=1
X234 vdd.t142 a_n8964_8799.t97 CSoutput.t7 vdd.t141 sky130_fd_pr__pfet_01v8 ad=3.12 pd=16.78 as=1.32 ps=8.33 w=8 l=0.5
X235 a_n2804_13878.t11 a_n2982_13878.t33 a_n2982_13878.t34 vdd.t250 sky130_fd_pr__pfet_01v8 ad=1.485 pd=9.33 as=1.485 ps=9.33 w=9 l=0.5
X236 a_n2982_13878.t7 minus.t17 a_n2903_n3924.t10 gnd.t7 sky130_fd_pr__nfet_01v8 ad=1.155 pd=7.33 as=1.155 ps=7.33 w=7 l=0.7
X237 a_n2982_13878.t4 minus.t18 a_n2903_n3924.t4 gnd.t4 sky130_fd_pr__nfet_01v8 ad=1.155 pd=7.33 as=1.155 ps=7.33 w=7 l=0.7
X238 plus.t2 gnd.t135 gnd.t137 gnd.t136 sky130_fd_pr__nfet_01v8 ad=0.165 pd=1.33 as=0.165 ps=1.33 w=1 l=0.5
X239 vdd.t249 a_n2982_13878.t89 a_n2982_8322.t9 vdd.t248 sky130_fd_pr__pfet_01v8 ad=1.485 pd=9.33 as=3.51 ps=18.78 w=9 l=0.5
X240 gnd.t258 commonsourceibias.t14 commonsourceibias.t15 gnd.t257 sky130_fd_pr__nfet_01v8 ad=1.155 pd=7.33 as=1.155 ps=7.33 w=7 l=1
X241 vdd.t140 a_n8964_8799.t98 CSoutput.t168 vdd.t139 sky130_fd_pr__pfet_01v8 ad=1.32 pd=8.33 as=1.32 ps=8.33 w=8 l=0.5
X242 gnd.t134 gnd.t132 gnd.t133 gnd.t102 sky130_fd_pr__nfet_01v8 ad=2.73 pd=14.78 as=0 ps=0 w=7 l=1
X243 CSoutput.t132 commonsourceibias.t129 gnd.t256 gnd.t182 sky130_fd_pr__nfet_01v8 ad=1.155 pd=7.33 as=1.155 ps=7.33 w=7 l=1
X244 a_n8964_8799.t28 plus.t16 a_n2903_n3924.t44 gnd.t27 sky130_fd_pr__nfet_01v8 ad=1.155 pd=7.33 as=1.155 ps=7.33 w=7 l=0.7