* NGSPICE file created from opamp198.ext - technology: sky130A

.subckt opamp198 gnd CSoutput output vdd plus minus commonsourceibias outputibias
+ diffpairibias
X0 a_n2140_13878.t21 a_n2318_13878.t20 a_n2318_13878.t21 vdd.t109 sky130_fd_pr__pfet_01v8 ad=1.485 pd=9.33 as=1.485 ps=9.33 w=9 l=0.5
X1 CSoutput.t53 a_n6308_8799.t36 vdd.t35 vdd.t8 sky130_fd_pr__pfet_01v8 ad=1.32 pd=8.33 as=1.32 ps=8.33 w=8 l=0.5
X2 a_n2140_13878.t23 a_n2318_13878.t52 vdd.t120 vdd.t119 sky130_fd_pr__pfet_01v8 ad=1.485 pd=9.33 as=1.485 ps=9.33 w=9 l=0.5
X3 vdd.t196 vdd.t194 vdd.t195 vdd.t126 sky130_fd_pr__pfet_01v8 ad=3.12 pd=16.78 as=0 ps=0 w=8 l=0.5
X4 CSoutput.t65 commonsourceibias.t64 gnd.t325 gnd.t256 sky130_fd_pr__nfet_01v8 ad=1.155 pd=7.33 as=1.155 ps=7.33 w=7 l=1
X5 a_n6308_8799.t15 plus.t5 a_n2903_n3924.t25 gnd.t132 sky130_fd_pr__nfet_01v8 ad=1.155 pd=7.33 as=1.155 ps=7.33 w=7 l=0.7
X6 CSoutput.t144 a_n2318_8322.t2 sky130_fd_pr__cap_mim_m3_1 l=12 w=12
X7 CSoutput.t59 commonsourceibias.t65 gnd.t324 gnd.t168 sky130_fd_pr__nfet_01v8 ad=1.155 pd=7.33 as=1.155 ps=7.33 w=7 l=1
X8 CSoutput.t60 commonsourceibias.t66 gnd.t323 gnd.t222 sky130_fd_pr__nfet_01v8 ad=1.155 pd=7.33 as=1.155 ps=7.33 w=7 l=1
X9 gnd.t322 commonsourceibias.t67 CSoutput.t90 gnd.t247 sky130_fd_pr__nfet_01v8 ad=1.155 pd=7.33 as=1.155 ps=7.33 w=7 l=1
X10 CSoutput.t52 a_n6308_8799.t37 vdd.t53 vdd.t52 sky130_fd_pr__pfet_01v8 ad=1.32 pd=8.33 as=1.32 ps=8.33 w=8 l=0.5
X11 gnd.t128 gnd.t126 plus.t4 gnd.t127 sky130_fd_pr__nfet_01v8 ad=0.165 pd=1.33 as=0.165 ps=1.33 w=1 l=0.5
X12 a_n2903_n3924.t24 plus.t6 a_n6308_8799.t7 gnd.t4 sky130_fd_pr__nfet_01v8 ad=1.155 pd=7.33 as=1.155 ps=7.33 w=7 l=0.7
X13 a_n2318_8322.t19 a_n2318_13878.t53 a_n6308_8799.t26 vdd.t118 sky130_fd_pr__pfet_01v8 ad=1.485 pd=9.33 as=1.485 ps=9.33 w=9 l=0.5
X14 a_n2903_n3924.t0 minus.t5 a_n2318_13878.t0 gnd.t2 sky130_fd_pr__nfet_01v8 ad=2.73 pd=14.78 as=1.155 ps=7.33 w=7 l=0.7
X15 vdd.t71 CSoutput.t145 output.t16 gnd.t148 sky130_fd_pr__nfet_01v8 ad=0.825 pd=5.33 as=0.825 ps=5.33 w=5 l=1
X16 gnd.t317 commonsourceibias.t68 CSoutput.t91 gnd.t198 sky130_fd_pr__nfet_01v8 ad=2.73 pd=14.78 as=1.155 ps=7.33 w=7 l=1
X17 CSoutput.t92 commonsourceibias.t69 gnd.t321 gnd.t245 sky130_fd_pr__nfet_01v8 ad=1.155 pd=7.33 as=1.155 ps=7.33 w=7 l=1
X18 CSoutput.t93 commonsourceibias.t70 gnd.t320 gnd.t245 sky130_fd_pr__nfet_01v8 ad=1.155 pd=7.33 as=1.155 ps=7.33 w=7 l=1
X19 CSoutput.t86 commonsourceibias.t71 gnd.t319 gnd.t200 sky130_fd_pr__nfet_01v8 ad=1.155 pd=7.33 as=1.155 ps=7.33 w=7 l=1
X20 gnd.t316 commonsourceibias.t72 CSoutput.t87 gnd.t183 sky130_fd_pr__nfet_01v8 ad=1.155 pd=7.33 as=1.155 ps=7.33 w=7 l=1
X21 a_n2318_13878.t14 minus.t6 a_n2903_n3924.t39 gnd.t344 sky130_fd_pr__nfet_01v8 ad=1.155 pd=7.33 as=1.155 ps=7.33 w=7 l=0.7
X22 gnd.t318 commonsourceibias.t73 CSoutput.t88 gnd.t226 sky130_fd_pr__nfet_01v8 ad=2.73 pd=14.78 as=1.155 ps=7.33 w=7 l=1
X23 commonsourceibias.t3 commonsourceibias.t2 gnd.t315 gnd.t200 sky130_fd_pr__nfet_01v8 ad=1.155 pd=7.33 as=1.155 ps=7.33 w=7 l=1
X24 CSoutput.t89 commonsourceibias.t74 gnd.t308 gnd.t260 sky130_fd_pr__nfet_01v8 ad=1.155 pd=7.33 as=1.155 ps=7.33 w=7 l=1
X25 a_n6308_8799.t30 a_n2318_13878.t54 a_n2318_8322.t18 vdd.t107 sky130_fd_pr__pfet_01v8 ad=1.485 pd=9.33 as=3.51 ps=18.78 w=9 l=0.5
X26 CSoutput.t74 commonsourceibias.t75 gnd.t314 gnd.t168 sky130_fd_pr__nfet_01v8 ad=1.155 pd=7.33 as=1.155 ps=7.33 w=7 l=1
X27 CSoutput.t51 a_n6308_8799.t38 vdd.t39 vdd.t12 sky130_fd_pr__pfet_01v8 ad=1.32 pd=8.33 as=1.32 ps=8.33 w=8 l=0.5
X28 vdd.t5 a_n6308_8799.t39 CSoutput.t50 vdd.t4 sky130_fd_pr__pfet_01v8 ad=1.32 pd=8.33 as=1.32 ps=8.33 w=8 l=0.5
X29 a_n2318_13878.t4 minus.t7 a_n2903_n3924.t4 gnd.t131 sky130_fd_pr__nfet_01v8 ad=1.155 pd=7.33 as=1.155 ps=7.33 w=7 l=0.7
X30 a_n6308_8799.t23 a_n2318_13878.t55 a_n2318_8322.t17 vdd.t74 sky130_fd_pr__pfet_01v8 ad=1.485 pd=9.33 as=3.51 ps=18.78 w=9 l=0.5
X31 CSoutput.t146 a_n2318_8322.t3 sky130_fd_pr__cap_mim_m3_1 l=12 w=12
X32 vdd.t193 vdd.t191 vdd.t192 vdd.t126 sky130_fd_pr__pfet_01v8 ad=3.12 pd=16.78 as=0 ps=0 w=8 l=0.5
X33 CSoutput.t75 commonsourceibias.t76 gnd.t313 gnd.t219 sky130_fd_pr__nfet_01v8 ad=1.155 pd=7.33 as=1.155 ps=7.33 w=7 l=1
X34 gnd.t312 commonsourceibias.t77 CSoutput.t56 gnd.t236 sky130_fd_pr__nfet_01v8 ad=1.155 pd=7.33 as=1.155 ps=7.33 w=7 l=1
X35 CSoutput.t57 commonsourceibias.t78 gnd.t311 gnd.t208 sky130_fd_pr__nfet_01v8 ad=1.155 pd=7.33 as=1.155 ps=7.33 w=7 l=1
X36 CSoutput.t107 commonsourceibias.t79 gnd.t310 gnd.t256 sky130_fd_pr__nfet_01v8 ad=1.155 pd=7.33 as=1.155 ps=7.33 w=7 l=1
X37 gnd.t125 gnd.t123 gnd.t124 gnd.t47 sky130_fd_pr__nfet_01v8 ad=2.73 pd=14.78 as=0 ps=0 w=7 l=1
X38 gnd.t122 gnd.t120 gnd.t121 gnd.t32 sky130_fd_pr__nfet_01v8 ad=2.73 pd=14.78 as=0 ps=0 w=7 l=1
X39 a_n2903_n3924.t42 minus.t8 a_n2318_13878.t49 gnd.t149 sky130_fd_pr__nfet_01v8 ad=2.73 pd=14.78 as=1.155 ps=7.33 w=7 l=0.7
X40 vdd.t190 vdd.t188 vdd.t189 vdd.t130 sky130_fd_pr__pfet_01v8 ad=3.51 pd=18.78 as=0 ps=0 w=9 l=0.5
X41 CSoutput.t49 a_n6308_8799.t40 vdd.t9 vdd.t8 sky130_fd_pr__pfet_01v8 ad=1.32 pd=8.33 as=1.32 ps=8.33 w=8 l=0.5
X42 CSoutput.t108 commonsourceibias.t80 gnd.t309 gnd.t230 sky130_fd_pr__nfet_01v8 ad=1.155 pd=7.33 as=1.155 ps=7.33 w=7 l=1
X43 CSoutput.t48 a_n6308_8799.t41 vdd.t69 vdd.t14 sky130_fd_pr__pfet_01v8 ad=1.32 pd=8.33 as=3.12 ps=16.78 w=8 l=0.5
X44 gnd.t307 commonsourceibias.t81 CSoutput.t1 gnd.t202 sky130_fd_pr__nfet_01v8 ad=1.155 pd=7.33 as=1.155 ps=7.33 w=7 l=1
X45 a_n2903_n3924.t29 diffpairibias.t16 gnd.t327 gnd.t326 sky130_fd_pr__nfet_01v8 ad=2.73 pd=14.78 as=2.73 ps=14.78 w=7 l=1
X46 CSoutput.t2 commonsourceibias.t82 gnd.t306 gnd.t191 sky130_fd_pr__nfet_01v8 ad=1.155 pd=7.33 as=2.73 ps=14.78 w=7 l=1
X47 gnd.t305 commonsourceibias.t14 commonsourceibias.t15 gnd.t205 sky130_fd_pr__nfet_01v8 ad=1.155 pd=7.33 as=1.155 ps=7.33 w=7 l=1
X48 CSoutput.t47 a_n6308_8799.t42 vdd.t62 vdd.t52 sky130_fd_pr__pfet_01v8 ad=1.32 pd=8.33 as=1.32 ps=8.33 w=8 l=0.5
X49 output.t19 outputibias.t8 gnd.t359 gnd.t358 sky130_fd_pr__nfet_01v8 ad=2.34 pd=12.78 as=2.34 ps=12.78 w=6 l=2
X50 CSoutput.t66 commonsourceibias.t83 gnd.t304 gnd.t230 sky130_fd_pr__nfet_01v8 ad=1.155 pd=7.33 as=1.155 ps=7.33 w=7 l=1
X51 a_n2903_n3924.t23 plus.t7 a_n6308_8799.t19 gnd.t343 sky130_fd_pr__nfet_01v8 ad=1.155 pd=7.33 as=1.155 ps=7.33 w=7 l=0.7
X52 gnd.t303 commonsourceibias.t84 CSoutput.t67 gnd.t251 sky130_fd_pr__nfet_01v8 ad=1.155 pd=7.33 as=1.155 ps=7.33 w=7 l=1
X53 a_n2140_13878.t20 a_n2318_13878.t28 a_n2318_13878.t29 vdd.t82 sky130_fd_pr__pfet_01v8 ad=1.485 pd=9.33 as=1.485 ps=9.33 w=9 l=0.5
X54 a_n2318_13878.t35 a_n2318_13878.t34 a_n2140_13878.t19 vdd.t92 sky130_fd_pr__pfet_01v8 ad=1.485 pd=9.33 as=1.485 ps=9.33 w=9 l=0.5
X55 CSoutput.t70 commonsourceibias.t85 gnd.t302 gnd.t216 sky130_fd_pr__nfet_01v8 ad=1.155 pd=7.33 as=1.155 ps=7.33 w=7 l=1
X56 CSoutput.t71 commonsourceibias.t86 gnd.t301 gnd.t180 sky130_fd_pr__nfet_01v8 ad=1.155 pd=7.33 as=1.155 ps=7.33 w=7 l=1
X57 vdd.t29 CSoutput.t147 output.t15 gnd.t147 sky130_fd_pr__nfet_01v8 ad=0.825 pd=5.33 as=0.825 ps=5.33 w=5 l=1
X58 gnd.t300 commonsourceibias.t87 CSoutput.t94 gnd.t251 sky130_fd_pr__nfet_01v8 ad=1.155 pd=7.33 as=1.155 ps=7.33 w=7 l=1
X59 a_n6308_8799.t14 plus.t8 a_n2903_n3924.t22 gnd.t339 sky130_fd_pr__nfet_01v8 ad=1.155 pd=7.33 as=1.155 ps=7.33 w=7 l=0.7
X60 gnd.t298 commonsourceibias.t88 CSoutput.t95 gnd.t247 sky130_fd_pr__nfet_01v8 ad=1.155 pd=7.33 as=1.155 ps=7.33 w=7 l=1
X61 vdd.t187 vdd.t185 vdd.t186 vdd.t168 sky130_fd_pr__pfet_01v8 ad=3.51 pd=18.78 as=0 ps=0 w=9 l=0.5
X62 CSoutput.t134 commonsourceibias.t89 gnd.t299 gnd.t216 sky130_fd_pr__nfet_01v8 ad=1.155 pd=7.33 as=1.155 ps=7.33 w=7 l=1
X63 gnd.t119 gnd.t117 gnd.t118 gnd.t47 sky130_fd_pr__nfet_01v8 ad=2.73 pd=14.78 as=0 ps=0 w=7 l=1
X64 gnd.t116 gnd.t113 gnd.t115 gnd.t114 sky130_fd_pr__nfet_01v8 ad=1.95 pd=10.78 as=0 ps=0 w=5 l=1
X65 CSoutput.t135 commonsourceibias.t90 gnd.t297 gnd.t245 sky130_fd_pr__nfet_01v8 ad=1.155 pd=7.33 as=1.155 ps=7.33 w=7 l=1
X66 gnd.t296 commonsourceibias.t20 commonsourceibias.t21 gnd.t170 sky130_fd_pr__nfet_01v8 ad=1.155 pd=7.33 as=1.155 ps=7.33 w=7 l=1
X67 a_n2318_13878.t51 minus.t9 a_n2903_n3924.t45 gnd.t150 sky130_fd_pr__nfet_01v8 ad=1.155 pd=7.33 as=1.155 ps=7.33 w=7 l=0.7
X68 diffpairibias.t15 diffpairibias.t14 gnd.t355 gnd.t354 sky130_fd_pr__nfet_01v8 ad=2.73 pd=14.78 as=2.73 ps=14.78 w=7 l=1
X69 gnd.t295 commonsourceibias.t91 CSoutput.t115 gnd.t185 sky130_fd_pr__nfet_01v8 ad=1.155 pd=7.33 as=1.155 ps=7.33 w=7 l=1
X70 CSoutput.t116 commonsourceibias.t92 gnd.t294 gnd.t228 sky130_fd_pr__nfet_01v8 ad=1.155 pd=7.33 as=1.155 ps=7.33 w=7 l=1
X71 CSoutput.t96 commonsourceibias.t93 gnd.t293 gnd.t191 sky130_fd_pr__nfet_01v8 ad=1.155 pd=7.33 as=2.73 ps=14.78 w=7 l=1
X72 a_n6308_8799.t21 a_n2318_13878.t56 a_n2318_8322.t16 vdd.t100 sky130_fd_pr__pfet_01v8 ad=1.485 pd=9.33 as=1.485 ps=9.33 w=9 l=0.5
X73 gnd.t292 commonsourceibias.t94 CSoutput.t97 gnd.t211 sky130_fd_pr__nfet_01v8 ad=1.155 pd=7.33 as=1.155 ps=7.33 w=7 l=1
X74 gnd.t291 commonsourceibias.t95 CSoutput.t79 gnd.t174 sky130_fd_pr__nfet_01v8 ad=1.155 pd=7.33 as=1.155 ps=7.33 w=7 l=1
X75 plus.t3 gnd.t110 gnd.t112 gnd.t111 sky130_fd_pr__nfet_01v8 ad=0.165 pd=1.33 as=0.165 ps=1.33 w=1 l=0.5
X76 CSoutput.t80 commonsourceibias.t96 gnd.t290 gnd.t228 sky130_fd_pr__nfet_01v8 ad=1.155 pd=7.33 as=1.155 ps=7.33 w=7 l=1
X77 diffpairibias.t13 diffpairibias.t12 gnd.t155 gnd.t154 sky130_fd_pr__nfet_01v8 ad=2.73 pd=14.78 as=2.73 ps=14.78 w=7 l=1
X78 gnd.t289 commonsourceibias.t16 commonsourceibias.t17 gnd.t213 sky130_fd_pr__nfet_01v8 ad=1.155 pd=7.33 as=1.155 ps=7.33 w=7 l=1
X79 gnd.t109 gnd.t107 gnd.t108 gnd.t36 sky130_fd_pr__nfet_01v8 ad=2.73 pd=14.78 as=0 ps=0 w=7 l=0.7
X80 CSoutput.t68 commonsourceibias.t97 gnd.t288 gnd.t196 sky130_fd_pr__nfet_01v8 ad=1.155 pd=7.33 as=1.155 ps=7.33 w=7 l=1
X81 CSoutput.t72 commonsourceibias.t98 gnd.t287 gnd.t260 sky130_fd_pr__nfet_01v8 ad=1.155 pd=7.33 as=1.155 ps=7.33 w=7 l=1
X82 gnd.t106 gnd.t104 gnd.t105 gnd.t28 sky130_fd_pr__nfet_01v8 ad=2.73 pd=14.78 as=0 ps=0 w=7 l=1
X83 gnd.t286 commonsourceibias.t99 CSoutput.t69 gnd.t226 sky130_fd_pr__nfet_01v8 ad=2.73 pd=14.78 as=1.155 ps=7.33 w=7 l=1
X84 CSoutput.t55 commonsourceibias.t100 gnd.t285 gnd.t180 sky130_fd_pr__nfet_01v8 ad=1.155 pd=7.33 as=1.155 ps=7.33 w=7 l=1
X85 gnd.t284 commonsourceibias.t101 CSoutput.t61 gnd.t213 sky130_fd_pr__nfet_01v8 ad=1.155 pd=7.33 as=1.155 ps=7.33 w=7 l=1
X86 CSoutput.t46 a_n6308_8799.t43 vdd.t23 vdd.t2 sky130_fd_pr__pfet_01v8 ad=1.32 pd=8.33 as=1.32 ps=8.33 w=8 l=0.5
X87 vdd.t201 a_n6308_8799.t44 CSoutput.t45 vdd.t33 sky130_fd_pr__pfet_01v8 ad=1.32 pd=8.33 as=1.32 ps=8.33 w=8 l=0.5
X88 gnd.t283 commonsourceibias.t102 CSoutput.t98 gnd.t236 sky130_fd_pr__nfet_01v8 ad=1.155 pd=7.33 as=1.155 ps=7.33 w=7 l=1
X89 CSoutput.t44 a_n6308_8799.t45 vdd.t3 vdd.t2 sky130_fd_pr__pfet_01v8 ad=1.32 pd=8.33 as=1.32 ps=8.33 w=8 l=0.5
X90 CSoutput.t43 a_n6308_8799.t46 vdd.t22 vdd.t14 sky130_fd_pr__pfet_01v8 ad=1.32 pd=8.33 as=3.12 ps=16.78 w=8 l=0.5
X91 CSoutput.t148 a_n2318_8322.t0 sky130_fd_pr__cap_mim_m3_1 l=12 w=12
X92 gnd.t282 commonsourceibias.t24 commonsourceibias.t25 gnd.t193 sky130_fd_pr__nfet_01v8 ad=1.155 pd=7.33 as=1.155 ps=7.33 w=7 l=1
X93 a_n2903_n3924.t21 plus.t9 a_n6308_8799.t12 gnd.t337 sky130_fd_pr__nfet_01v8 ad=1.155 pd=7.33 as=1.155 ps=7.33 w=7 l=0.7
X94 gnd.t281 commonsourceibias.t103 CSoutput.t109 gnd.t213 sky130_fd_pr__nfet_01v8 ad=1.155 pd=7.33 as=1.155 ps=7.33 w=7 l=1
X95 output.t14 CSoutput.t149 vdd.t30 gnd.t146 sky130_fd_pr__nfet_01v8 ad=0.825 pd=5.33 as=0.825 ps=5.33 w=5 l=1
X96 a_n2903_n3924.t30 diffpairibias.t17 gnd.t329 gnd.t328 sky130_fd_pr__nfet_01v8 ad=2.73 pd=14.78 as=2.73 ps=14.78 w=7 l=1
X97 vdd.t11 a_n6308_8799.t47 CSoutput.t42 vdd.t4 sky130_fd_pr__pfet_01v8 ad=1.32 pd=8.33 as=1.32 ps=8.33 w=8 l=0.5
X98 vdd.t58 a_n6308_8799.t48 CSoutput.t41 vdd.t57 sky130_fd_pr__pfet_01v8 ad=1.32 pd=8.33 as=1.32 ps=8.33 w=8 l=0.5
X99 a_n6308_8799.t32 a_n2318_13878.t57 a_n2318_8322.t15 vdd.t108 sky130_fd_pr__pfet_01v8 ad=1.485 pd=9.33 as=1.485 ps=9.33 w=9 l=0.5
X100 a_n2318_13878.t47 a_n2318_13878.t46 a_n2140_13878.t18 vdd.t118 sky130_fd_pr__pfet_01v8 ad=1.485 pd=9.33 as=1.485 ps=9.33 w=9 l=0.5
X101 gnd.t280 commonsourceibias.t104 CSoutput.t136 gnd.t202 sky130_fd_pr__nfet_01v8 ad=1.155 pd=7.33 as=1.155 ps=7.33 w=7 l=1
X102 gnd.t103 gnd.t101 gnd.t102 gnd.t24 sky130_fd_pr__nfet_01v8 ad=2.73 pd=14.78 as=0 ps=0 w=7 l=1
X103 a_n2318_13878.t37 a_n2318_13878.t36 a_n2140_13878.t17 vdd.t77 sky130_fd_pr__pfet_01v8 ad=3.51 pd=18.78 as=1.485 ps=9.33 w=9 l=0.5
X104 gnd.t100 gnd.t98 gnd.t99 gnd.t24 sky130_fd_pr__nfet_01v8 ad=2.73 pd=14.78 as=0 ps=0 w=7 l=1
X105 CSoutput.t111 commonsourceibias.t105 gnd.t279 gnd.t219 sky130_fd_pr__nfet_01v8 ad=1.155 pd=7.33 as=1.155 ps=7.33 w=7 l=1
X106 CSoutput.t40 a_n6308_8799.t49 vdd.t55 vdd.t54 sky130_fd_pr__pfet_01v8 ad=1.32 pd=8.33 as=1.32 ps=8.33 w=8 l=0.5
X107 vdd.t38 a_n6308_8799.t50 CSoutput.t39 vdd.t37 sky130_fd_pr__pfet_01v8 ad=3.12 pd=16.78 as=1.32 ps=8.33 w=8 l=0.5
X108 gnd.t278 commonsourceibias.t106 CSoutput.t112 gnd.t178 sky130_fd_pr__nfet_01v8 ad=1.155 pd=7.33 as=1.155 ps=7.33 w=7 l=1
X109 a_n2318_13878.t3 minus.t10 a_n2903_n3924.t3 gnd.t8 sky130_fd_pr__nfet_01v8 ad=1.155 pd=7.33 as=1.155 ps=7.33 w=7 l=0.7
X110 vdd.t184 vdd.t182 vdd.t183 vdd.t142 sky130_fd_pr__pfet_01v8 ad=3.12 pd=16.78 as=0 ps=0 w=8 l=0.5
X111 vdd.t181 vdd.t179 vdd.t180 vdd.t172 sky130_fd_pr__pfet_01v8 ad=3.51 pd=18.78 as=0 ps=0 w=9 l=0.5
X112 gnd.t277 commonsourceibias.t107 CSoutput.t117 gnd.t205 sky130_fd_pr__nfet_01v8 ad=1.155 pd=7.33 as=1.155 ps=7.33 w=7 l=1
X113 output.t13 CSoutput.t150 vdd.t31 gnd.t145 sky130_fd_pr__nfet_01v8 ad=0.825 pd=5.33 as=0.825 ps=5.33 w=5 l=1
X114 gnd.t276 commonsourceibias.t22 commonsourceibias.t23 gnd.t183 sky130_fd_pr__nfet_01v8 ad=1.155 pd=7.33 as=1.155 ps=7.33 w=7 l=1
X115 vdd.t178 vdd.t175 vdd.t177 vdd.t176 sky130_fd_pr__pfet_01v8 ad=3.51 pd=18.78 as=0 ps=0 w=9 l=0.5
X116 output.t17 outputibias.t9 gnd.t331 gnd.t330 sky130_fd_pr__nfet_01v8 ad=2.34 pd=12.78 as=2.34 ps=12.78 w=6 l=2
X117 a_n2903_n3924.t41 minus.t11 a_n2318_13878.t48 gnd.t342 sky130_fd_pr__nfet_01v8 ad=1.155 pd=7.33 as=1.155 ps=7.33 w=7 l=0.7
X118 CSoutput.t151 a_n2318_8322.t2 sky130_fd_pr__cap_mim_m3_1 l=12 w=12
X119 a_n2318_8322.t27 a_n2318_13878.t58 vdd.t117 vdd.t116 sky130_fd_pr__pfet_01v8 ad=1.485 pd=9.33 as=1.485 ps=9.33 w=9 l=0.5
X120 vdd.t115 a_n2318_13878.t59 a_n2318_8322.t26 vdd.t114 sky130_fd_pr__pfet_01v8 ad=1.485 pd=9.33 as=1.485 ps=9.33 w=9 l=0.5
X121 a_n2318_13878.t17 a_n2318_13878.t16 a_n2140_13878.t16 vdd.t84 sky130_fd_pr__pfet_01v8 ad=3.51 pd=18.78 as=1.485 ps=9.33 w=9 l=0.5
X122 CSoutput.t38 a_n6308_8799.t51 vdd.t70 vdd.t2 sky130_fd_pr__pfet_01v8 ad=1.32 pd=8.33 as=1.32 ps=8.33 w=8 l=0.5
X123 CSoutput.t99 commonsourceibias.t108 gnd.t275 gnd.t166 sky130_fd_pr__nfet_01v8 ad=1.155 pd=7.33 as=2.73 ps=14.78 w=7 l=1
X124 gnd.t274 commonsourceibias.t109 CSoutput.t120 gnd.t193 sky130_fd_pr__nfet_01v8 ad=1.155 pd=7.33 as=1.155 ps=7.33 w=7 l=1
X125 gnd.t97 gnd.t95 gnd.t96 gnd.t43 sky130_fd_pr__nfet_01v8 ad=2.73 pd=14.78 as=0 ps=0 w=7 l=0.7
X126 CSoutput.t81 commonsourceibias.t110 gnd.t273 gnd.t260 sky130_fd_pr__nfet_01v8 ad=1.155 pd=7.33 as=1.155 ps=7.33 w=7 l=1
X127 gnd.t272 commonsourceibias.t111 CSoutput.t132 gnd.t251 sky130_fd_pr__nfet_01v8 ad=1.155 pd=7.33 as=1.155 ps=7.33 w=7 l=1
X128 vdd.t32 CSoutput.t152 output.t12 gnd.t144 sky130_fd_pr__nfet_01v8 ad=0.825 pd=5.33 as=0.825 ps=5.33 w=5 l=1
X129 output.t11 CSoutput.t153 vdd.t18 gnd.t143 sky130_fd_pr__nfet_01v8 ad=0.825 pd=5.33 as=0.825 ps=5.33 w=5 l=1
X130 a_n2903_n3924.t43 diffpairibias.t18 gnd.t349 gnd.t348 sky130_fd_pr__nfet_01v8 ad=2.73 pd=14.78 as=2.73 ps=14.78 w=7 l=1
X131 gnd.t271 commonsourceibias.t112 CSoutput.t124 gnd.t226 sky130_fd_pr__nfet_01v8 ad=2.73 pd=14.78 as=1.155 ps=7.33 w=7 l=1
X132 gnd.t270 commonsourceibias.t18 commonsourceibias.t19 gnd.t185 sky130_fd_pr__nfet_01v8 ad=1.155 pd=7.33 as=1.155 ps=7.33 w=7 l=1
X133 CSoutput.t100 commonsourceibias.t113 gnd.t269 gnd.t256 sky130_fd_pr__nfet_01v8 ad=1.155 pd=7.33 as=1.155 ps=7.33 w=7 l=1
X134 a_n2903_n3924.t44 minus.t12 a_n2318_13878.t50 gnd.t336 sky130_fd_pr__nfet_01v8 ad=1.155 pd=7.33 as=1.155 ps=7.33 w=7 l=0.7
X135 CSoutput.t154 a_n2318_8322.t1 sky130_fd_pr__cap_mim_m3_1 l=12 w=12
X136 vdd.t113 a_n2318_13878.t60 a_n2140_13878.t4 vdd.t112 sky130_fd_pr__pfet_01v8 ad=1.485 pd=9.33 as=1.485 ps=9.33 w=9 l=0.5
X137 a_n2318_13878.t1 minus.t13 a_n2903_n3924.t1 gnd.t3 sky130_fd_pr__nfet_01v8 ad=1.155 pd=7.33 as=2.73 ps=14.78 w=7 l=0.7
X138 vdd.t174 vdd.t171 vdd.t173 vdd.t172 sky130_fd_pr__pfet_01v8 ad=3.51 pd=18.78 as=0 ps=0 w=9 l=0.5
X139 a_n2903_n3924.t20 plus.t10 a_n6308_8799.t10 gnd.t151 sky130_fd_pr__nfet_01v8 ad=1.155 pd=7.33 as=1.155 ps=7.33 w=7 l=0.7
X140 a_n2903_n3924.t19 plus.t11 a_n6308_8799.t13 gnd.t338 sky130_fd_pr__nfet_01v8 ad=1.155 pd=7.33 as=1.155 ps=7.33 w=7 l=0.7
X141 vdd.t42 a_n6308_8799.t52 CSoutput.t37 vdd.t4 sky130_fd_pr__pfet_01v8 ad=1.32 pd=8.33 as=1.32 ps=8.33 w=8 l=0.5
X142 gnd.t94 gnd.t92 gnd.t93 gnd.t24 sky130_fd_pr__nfet_01v8 ad=2.73 pd=14.78 as=0 ps=0 w=7 l=1
X143 a_n6308_8799.t18 plus.t12 a_n2903_n3924.t18 gnd.t345 sky130_fd_pr__nfet_01v8 ad=1.155 pd=7.33 as=1.155 ps=7.33 w=7 l=0.7
X144 a_n6308_8799.t25 a_n2318_13878.t61 a_n2318_8322.t14 vdd.t83 sky130_fd_pr__pfet_01v8 ad=1.485 pd=9.33 as=1.485 ps=9.33 w=9 l=0.5
X145 a_n2318_8322.t25 a_n2318_13878.t62 vdd.t111 vdd.t110 sky130_fd_pr__pfet_01v8 ad=3.51 pd=18.78 as=1.485 ps=9.33 w=9 l=0.5
X146 vdd.t170 vdd.t167 vdd.t169 vdd.t168 sky130_fd_pr__pfet_01v8 ad=3.51 pd=18.78 as=0 ps=0 w=9 l=0.5
X147 a_n6308_8799.t0 plus.t13 a_n2903_n3924.t17 gnd.t5 sky130_fd_pr__nfet_01v8 ad=1.155 pd=7.33 as=2.73 ps=14.78 w=7 l=0.7
X148 vdd.t56 a_n6308_8799.t53 CSoutput.t36 vdd.t37 sky130_fd_pr__pfet_01v8 ad=3.12 pd=16.78 as=1.32 ps=8.33 w=8 l=0.5
X149 a_n2318_13878.t25 a_n2318_13878.t24 a_n2140_13878.t15 vdd.t95 sky130_fd_pr__pfet_01v8 ad=1.485 pd=9.33 as=1.485 ps=9.33 w=9 l=0.5
X150 a_n2318_13878.t12 minus.t14 a_n2903_n3924.t37 gnd.t163 sky130_fd_pr__nfet_01v8 ad=1.155 pd=7.33 as=1.155 ps=7.33 w=7 l=0.7
X151 diffpairibias.t11 diffpairibias.t10 gnd.t162 gnd.t161 sky130_fd_pr__nfet_01v8 ad=2.73 pd=14.78 as=2.73 ps=14.78 w=7 l=1
X152 CSoutput.t35 a_n6308_8799.t54 vdd.t68 vdd.t54 sky130_fd_pr__pfet_01v8 ad=1.32 pd=8.33 as=1.32 ps=8.33 w=8 l=0.5
X153 a_n6308_8799.t20 a_n2318_13878.t63 a_n2318_8322.t13 vdd.t109 sky130_fd_pr__pfet_01v8 ad=1.485 pd=9.33 as=1.485 ps=9.33 w=9 l=0.5
X154 CSoutput.t137 commonsourceibias.t114 gnd.t267 gnd.t222 sky130_fd_pr__nfet_01v8 ad=1.155 pd=7.33 as=1.155 ps=7.33 w=7 l=1
X155 a_n2140_13878.t14 a_n2318_13878.t40 a_n2318_13878.t41 vdd.t108 sky130_fd_pr__pfet_01v8 ad=1.485 pd=9.33 as=1.485 ps=9.33 w=9 l=0.5
X156 gnd.t91 gnd.t89 minus.t4 gnd.t90 sky130_fd_pr__nfet_01v8 ad=0.165 pd=1.33 as=0.39 ps=2.78 w=1 l=0.5
X157 gnd.t268 commonsourceibias.t115 CSoutput.t113 gnd.t247 sky130_fd_pr__nfet_01v8 ad=1.155 pd=7.33 as=1.155 ps=7.33 w=7 l=1
X158 output.t10 CSoutput.t155 vdd.t19 gnd.t142 sky130_fd_pr__nfet_01v8 ad=0.825 pd=5.33 as=0.825 ps=5.33 w=5 l=1
X159 commonsourceibias.t29 commonsourceibias.t28 gnd.t266 gnd.t168 sky130_fd_pr__nfet_01v8 ad=1.155 pd=7.33 as=1.155 ps=7.33 w=7 l=1
X160 vdd.t166 vdd.t164 vdd.t165 vdd.t142 sky130_fd_pr__pfet_01v8 ad=3.12 pd=16.78 as=0 ps=0 w=8 l=0.5
X161 CSoutput.t101 commonsourceibias.t116 gnd.t265 gnd.t219 sky130_fd_pr__nfet_01v8 ad=1.155 pd=7.33 as=1.155 ps=7.33 w=7 l=1
X162 a_n2903_n3924.t33 minus.t15 a_n2318_13878.t8 gnd.t156 sky130_fd_pr__nfet_01v8 ad=1.155 pd=7.33 as=1.155 ps=7.33 w=7 l=0.7
X163 gnd.t85 gnd.t82 gnd.t84 gnd.t83 sky130_fd_pr__nfet_01v8 ad=1.95 pd=10.78 as=0 ps=0 w=5 l=1
X164 a_n2140_13878.t13 a_n2318_13878.t26 a_n2318_13878.t27 vdd.t107 sky130_fd_pr__pfet_01v8 ad=1.485 pd=9.33 as=3.51 ps=18.78 w=9 l=0.5
X165 vdd.t106 a_n2318_13878.t64 a_n2318_8322.t24 vdd.t105 sky130_fd_pr__pfet_01v8 ad=1.485 pd=9.33 as=3.51 ps=18.78 w=9 l=0.5
X166 gnd.t88 gnd.t86 gnd.t87 gnd.t32 sky130_fd_pr__nfet_01v8 ad=2.73 pd=14.78 as=0 ps=0 w=7 l=1
X167 CSoutput.t138 commonsourceibias.t117 gnd.t264 gnd.t216 sky130_fd_pr__nfet_01v8 ad=1.155 pd=7.33 as=1.155 ps=7.33 w=7 l=1
X168 output.t9 CSoutput.t156 vdd.t24 gnd.t141 sky130_fd_pr__nfet_01v8 ad=0.825 pd=5.33 as=0.825 ps=5.33 w=5 l=1
X169 a_n2318_13878.t43 a_n2318_13878.t42 a_n2140_13878.t12 vdd.t80 sky130_fd_pr__pfet_01v8 ad=1.485 pd=9.33 as=1.485 ps=9.33 w=9 l=0.5
X170 gnd.t263 commonsourceibias.t118 CSoutput.t125 gnd.t236 sky130_fd_pr__nfet_01v8 ad=1.155 pd=7.33 as=1.155 ps=7.33 w=7 l=1
X171 gnd.t262 commonsourceibias.t119 CSoutput.t114 gnd.t211 sky130_fd_pr__nfet_01v8 ad=1.155 pd=7.33 as=1.155 ps=7.33 w=7 l=1
X172 outputibias.t7 outputibias.t6 gnd.t158 gnd.t157 sky130_fd_pr__nfet_01v8 ad=2.34 pd=12.78 as=2.34 ps=12.78 w=6 l=2
X173 commonsourceibias.t27 commonsourceibias.t26 gnd.t261 gnd.t260 sky130_fd_pr__nfet_01v8 ad=1.155 pd=7.33 as=1.155 ps=7.33 w=7 l=1
X174 gnd.t259 commonsourceibias.t120 CSoutput.t118 gnd.t198 sky130_fd_pr__nfet_01v8 ad=2.73 pd=14.78 as=1.155 ps=7.33 w=7 l=1
X175 outputibias.t5 outputibias.t4 gnd.t333 gnd.t332 sky130_fd_pr__nfet_01v8 ad=2.34 pd=12.78 as=2.34 ps=12.78 w=6 l=2
X176 gnd.t81 gnd.t79 minus.t3 gnd.t80 sky130_fd_pr__nfet_01v8 ad=0.165 pd=1.33 as=0.165 ps=1.33 w=1 l=0.5
X177 CSoutput.t106 commonsourceibias.t121 gnd.t258 gnd.t208 sky130_fd_pr__nfet_01v8 ad=1.155 pd=7.33 as=1.155 ps=7.33 w=7 l=1
X178 a_n2903_n3924.t16 plus.t14 a_n6308_8799.t6 gnd.t2 sky130_fd_pr__nfet_01v8 ad=2.73 pd=14.78 as=1.155 ps=7.33 w=7 l=0.7
X179 gnd.t78 gnd.t75 gnd.t77 gnd.t76 sky130_fd_pr__nfet_01v8 ad=2.73 pd=14.78 as=0 ps=0 w=7 l=1
X180 a_n2903_n3924.t31 diffpairibias.t19 gnd.t341 gnd.t340 sky130_fd_pr__nfet_01v8 ad=2.73 pd=14.78 as=2.73 ps=14.78 w=7 l=1
X181 a_n2903_n3924.t28 diffpairibias.t20 gnd.t160 gnd.t159 sky130_fd_pr__nfet_01v8 ad=2.73 pd=14.78 as=2.73 ps=14.78 w=7 l=1
X182 commonsourceibias.t37 commonsourceibias.t36 gnd.t257 gnd.t256 sky130_fd_pr__nfet_01v8 ad=1.155 pd=7.33 as=1.155 ps=7.33 w=7 l=1
X183 vdd.t199 a_n6308_8799.t55 CSoutput.t34 vdd.t16 sky130_fd_pr__pfet_01v8 ad=3.12 pd=16.78 as=1.32 ps=8.33 w=8 l=0.5
X184 a_n6308_8799.t17 plus.t15 a_n2903_n3924.t15 gnd.t344 sky130_fd_pr__nfet_01v8 ad=1.155 pd=7.33 as=1.155 ps=7.33 w=7 l=0.7
X185 gnd.t74 gnd.t72 gnd.t73 gnd.t47 sky130_fd_pr__nfet_01v8 ad=2.73 pd=14.78 as=0 ps=0 w=7 l=1
X186 gnd.t71 gnd.t69 gnd.t70 gnd.t32 sky130_fd_pr__nfet_01v8 ad=2.73 pd=14.78 as=0 ps=0 w=7 l=1
X187 CSoutput.t62 commonsourceibias.t122 gnd.t253 gnd.t222 sky130_fd_pr__nfet_01v8 ad=1.155 pd=7.33 as=1.155 ps=7.33 w=7 l=1
X188 vdd.t25 CSoutput.t157 output.t8 gnd.t140 sky130_fd_pr__nfet_01v8 ad=0.825 pd=5.33 as=0.825 ps=5.33 w=5 l=1
X189 CSoutput.t121 commonsourceibias.t123 gnd.t255 gnd.t196 sky130_fd_pr__nfet_01v8 ad=1.155 pd=7.33 as=1.155 ps=7.33 w=7 l=1
X190 CSoutput.t33 a_n6308_8799.t56 vdd.t36 vdd.t27 sky130_fd_pr__pfet_01v8 ad=1.32 pd=8.33 as=1.32 ps=8.33 w=8 l=0.5
X191 CSoutput.t32 a_n6308_8799.t57 vdd.t65 vdd.t8 sky130_fd_pr__pfet_01v8 ad=1.32 pd=8.33 as=1.32 ps=8.33 w=8 l=0.5
X192 commonsourceibias.t35 commonsourceibias.t34 gnd.t254 gnd.t230 sky130_fd_pr__nfet_01v8 ad=1.155 pd=7.33 as=1.155 ps=7.33 w=7 l=1
X193 a_n2140_13878.t2 a_n2318_13878.t65 vdd.t104 vdd.t103 sky130_fd_pr__pfet_01v8 ad=1.485 pd=9.33 as=1.485 ps=9.33 w=9 l=0.5
X194 vdd.t26 CSoutput.t158 output.t7 gnd.t139 sky130_fd_pr__nfet_01v8 ad=0.825 pd=5.33 as=0.825 ps=5.33 w=5 l=1
X195 gnd.t252 commonsourceibias.t32 commonsourceibias.t33 gnd.t251 sky130_fd_pr__nfet_01v8 ad=1.155 pd=7.33 as=1.155 ps=7.33 w=7 l=1
X196 diffpairibias.t9 diffpairibias.t8 gnd.t351 gnd.t350 sky130_fd_pr__nfet_01v8 ad=2.73 pd=14.78 as=2.73 ps=14.78 w=7 l=1
X197 vdd.t102 a_n2318_13878.t66 a_n2140_13878.t1 vdd.t101 sky130_fd_pr__pfet_01v8 ad=1.485 pd=9.33 as=1.485 ps=9.33 w=9 l=0.5
X198 CSoutput.t133 commonsourceibias.t124 gnd.t250 gnd.t208 sky130_fd_pr__nfet_01v8 ad=1.155 pd=7.33 as=1.155 ps=7.33 w=7 l=1
X199 CSoutput.t126 commonsourceibias.t125 gnd.t249 gnd.t172 sky130_fd_pr__nfet_01v8 ad=1.155 pd=7.33 as=1.155 ps=7.33 w=7 l=1
X200 gnd.t248 commonsourceibias.t46 commonsourceibias.t47 gnd.t247 sky130_fd_pr__nfet_01v8 ad=1.155 pd=7.33 as=1.155 ps=7.33 w=7 l=1
X201 commonsourceibias.t45 commonsourceibias.t44 gnd.t246 gnd.t245 sky130_fd_pr__nfet_01v8 ad=1.155 pd=7.33 as=1.155 ps=7.33 w=7 l=1
X202 outputibias.t3 outputibias.t2 gnd.t361 gnd.t360 sky130_fd_pr__nfet_01v8 ad=2.34 pd=12.78 as=2.34 ps=12.78 w=6 l=2
X203 a_n2140_13878.t11 a_n2318_13878.t18 a_n2318_13878.t19 vdd.t100 sky130_fd_pr__pfet_01v8 ad=1.485 pd=9.33 as=1.485 ps=9.33 w=9 l=0.5
X204 gnd.t244 commonsourceibias.t126 CSoutput.t84 gnd.t187 sky130_fd_pr__nfet_01v8 ad=1.155 pd=7.33 as=1.155 ps=7.33 w=7 l=1
X205 a_n2903_n3924.t32 minus.t16 a_n2318_13878.t7 gnd.t343 sky130_fd_pr__nfet_01v8 ad=1.155 pd=7.33 as=1.155 ps=7.33 w=7 l=0.7
X206 commonsourceibias.t43 commonsourceibias.t42 gnd.t243 gnd.t191 sky130_fd_pr__nfet_01v8 ad=1.155 pd=7.33 as=2.73 ps=14.78 w=7 l=1
X207 a_n2318_8322.t12 a_n2318_13878.t67 a_n6308_8799.t27 vdd.t73 sky130_fd_pr__pfet_01v8 ad=1.485 pd=9.33 as=1.485 ps=9.33 w=9 l=0.5
X208 gnd.t242 commonsourceibias.t40 commonsourceibias.t41 gnd.t174 sky130_fd_pr__nfet_01v8 ad=1.155 pd=7.33 as=1.155 ps=7.33 w=7 l=1
X209 a_n2318_13878.t15 minus.t17 a_n2903_n3924.t40 gnd.t339 sky130_fd_pr__nfet_01v8 ad=1.155 pd=7.33 as=1.155 ps=7.33 w=7 l=0.7
X210 diffpairibias.t7 diffpairibias.t6 gnd.t165 gnd.t164 sky130_fd_pr__nfet_01v8 ad=2.73 pd=14.78 as=2.73 ps=14.78 w=7 l=1
X211 CSoutput.t63 commonsourceibias.t127 gnd.t241 gnd.t180 sky130_fd_pr__nfet_01v8 ad=1.155 pd=7.33 as=1.155 ps=7.33 w=7 l=1
X212 commonsourceibias.t39 commonsourceibias.t38 gnd.t240 gnd.t228 sky130_fd_pr__nfet_01v8 ad=1.155 pd=7.33 as=1.155 ps=7.33 w=7 l=1
X213 vdd.t17 a_n6308_8799.t58 CSoutput.t31 vdd.t16 sky130_fd_pr__pfet_01v8 ad=3.12 pd=16.78 as=1.32 ps=8.33 w=8 l=0.5
X214 vdd.t99 a_n2318_13878.t68 a_n2318_8322.t23 vdd.t98 sky130_fd_pr__pfet_01v8 ad=1.485 pd=9.33 as=3.51 ps=18.78 w=9 l=0.5
X215 plus.t2 gnd.t66 gnd.t68 gnd.t67 sky130_fd_pr__nfet_01v8 ad=0.165 pd=1.33 as=0.165 ps=1.33 w=1 l=0.5
X216 a_n2318_13878.t5 minus.t18 a_n2903_n3924.t5 gnd.t132 sky130_fd_pr__nfet_01v8 ad=1.155 pd=7.33 as=1.155 ps=7.33 w=7 l=0.7
X217 a_n6308_8799.t4 plus.t16 a_n2903_n3924.t14 gnd.t150 sky130_fd_pr__nfet_01v8 ad=1.155 pd=7.33 as=1.155 ps=7.33 w=7 l=0.7
X218 gnd.t65 gnd.t63 minus.t2 gnd.t64 sky130_fd_pr__nfet_01v8 ad=0.39 pd=2.78 as=0.165 ps=1.33 w=1 l=0.5
X219 gnd.t239 commonsourceibias.t128 CSoutput.t139 gnd.t187 sky130_fd_pr__nfet_01v8 ad=1.155 pd=7.33 as=1.155 ps=7.33 w=7 l=1
X220 a_n2903_n3924.t2 minus.t19 a_n2318_13878.t2 gnd.t4 sky130_fd_pr__nfet_01v8 ad=1.155 pd=7.33 as=1.155 ps=7.33 w=7 l=0.7
X221 a_n2140_13878.t5 a_n2318_13878.t69 vdd.t97 vdd.t96 sky130_fd_pr__pfet_01v8 ad=3.51 pd=18.78 as=1.485 ps=9.33 w=9 l=0.5
X222 CSoutput.t127 commonsourceibias.t129 gnd.t238 gnd.t166 sky130_fd_pr__nfet_01v8 ad=1.155 pd=7.33 as=2.73 ps=14.78 w=7 l=1
X223 gnd.t237 commonsourceibias.t52 commonsourceibias.t53 gnd.t236 sky130_fd_pr__nfet_01v8 ad=1.155 pd=7.33 as=1.155 ps=7.33 w=7 l=1
X224 vdd.t203 a_n6308_8799.t59 CSoutput.t30 vdd.t57 sky130_fd_pr__pfet_01v8 ad=1.32 pd=8.33 as=1.32 ps=8.33 w=8 l=0.5
X225 vdd.t163 vdd.t161 vdd.t162 vdd.t122 sky130_fd_pr__pfet_01v8 ad=3.12 pd=16.78 as=0 ps=0 w=8 l=0.5
X226 output.t6 CSoutput.t159 vdd.t49 gnd.t138 sky130_fd_pr__nfet_01v8 ad=0.825 pd=5.33 as=0.825 ps=5.33 w=5 l=1
X227 CSoutput.t29 a_n6308_8799.t60 vdd.t46 vdd.t12 sky130_fd_pr__pfet_01v8 ad=1.32 pd=8.33 as=1.32 ps=8.33 w=8 l=0.5
X228 CSoutput.t28 a_n6308_8799.t61 vdd.t28 vdd.t27 sky130_fd_pr__pfet_01v8 ad=1.32 pd=8.33 as=1.32 ps=8.33 w=8 l=0.5
X229 gnd.t235 commonsourceibias.t130 CSoutput.t0 gnd.t185 sky130_fd_pr__nfet_01v8 ad=1.155 pd=7.33 as=1.155 ps=7.33 w=7 l=1
X230 minus.t1 gnd.t60 gnd.t62 gnd.t61 sky130_fd_pr__nfet_01v8 ad=0.165 pd=1.33 as=0.165 ps=1.33 w=1 l=0.5
X231 gnd.t59 gnd.t56 gnd.t58 gnd.t57 sky130_fd_pr__nfet_01v8 ad=2.73 pd=14.78 as=0 ps=0 w=7 l=1
X232 a_n2318_8322.t11 a_n2318_13878.t70 a_n6308_8799.t29 vdd.t95 sky130_fd_pr__pfet_01v8 ad=1.485 pd=9.33 as=1.485 ps=9.33 w=9 l=0.5
X233 vdd.t94 a_n2318_13878.t71 a_n2318_8322.t22 vdd.t93 sky130_fd_pr__pfet_01v8 ad=1.485 pd=9.33 as=1.485 ps=9.33 w=9 l=0.5
X234 CSoutput.t27 a_n6308_8799.t62 vdd.t202 vdd.t27 sky130_fd_pr__pfet_01v8 ad=1.32 pd=8.33 as=1.32 ps=8.33 w=8 l=0.5
X235 a_n2903_n3924.t47 diffpairibias.t21 gnd.t363 gnd.t362 sky130_fd_pr__nfet_01v8 ad=2.73 pd=14.78 as=2.73 ps=14.78 w=7 l=1
X236 CSoutput.t26 a_n6308_8799.t63 vdd.t41 vdd.t40 sky130_fd_pr__pfet_01v8 ad=1.32 pd=8.33 as=3.12 ps=16.78 w=8 l=0.5
X237 vdd.t7 a_n6308_8799.t64 CSoutput.t25 vdd.t6 sky130_fd_pr__pfet_01v8 ad=1.32 pd=8.33 as=1.32 ps=8.33 w=8 l=0.5
X238 gnd.t234 commonsourceibias.t50 commonsourceibias.t51 gnd.t202 sky130_fd_pr__nfet_01v8 ad=1.155 pd=7.33 as=1.155 ps=7.33 w=7 l=1
X239 vdd.t10 a_n6308_8799.t65 CSoutput.t24 vdd.t0 sky130_fd_pr__pfet_01v8 ad=1.32 pd=8.33 as=1.32 ps=8.33 w=8 l=0.5
X240 vdd.t21 a_n6308_8799.t66 CSoutput.t23 vdd.t20 sky130_fd_pr__pfet_01v8 ad=1.32 pd=8.33 as=1.32 ps=8.33 w=8 l=0.5
X241 a_n6308_8799.t3 plus.t17 a_n2903_n3924.t13 gnd.t131 sky130_fd_pr__nfet_01v8 ad=1.155 pd=7.33 as=1.155 ps=7.33 w=7 l=0.7
X242 vdd.t160 vdd.t158 vdd.t159 vdd.t138 sky130_fd_pr__pfet_01v8 ad=3.12 pd=16.78 as=0 ps=0 w=8 l=0.5
X243 gnd.t55 gnd.t53 gnd.t54 gnd.t28 sky130_fd_pr__nfet_01v8 ad=2.73 pd=14.78 as=0 ps=0 w=7 l=1
X244 output.t0 outputibias.t10 gnd.t1 gnd.t0 sky130_fd_pr__nfet_01v8 ad=2.34 pd=12.78 as=2.34 ps=12.78 w=6 l=2
X245 vdd.t157 vdd.t154 vdd.t156 vdd.t155 sky130_fd_pr__pfet_01v8 ad=3.51 pd=18.78 as=0 ps=0 w=9 l=0.5
X246 a_n2903_n3924.t12 plus.t18 a_n6308_8799.t2 gnd.t149 sky130_fd_pr__nfet_01v8 ad=2.73 pd=14.78 as=1.155 ps=7.33 w=7 l=0.7
X247 CSoutput.t119 commonsourceibias.t131 gnd.t233 gnd.t200 sky130_fd_pr__nfet_01v8 ad=1.155 pd=7.33 as=1.155 ps=7.33 w=7 l=1
X248 gnd.t232 commonsourceibias.t48 commonsourceibias.t49 gnd.t178 sky130_fd_pr__nfet_01v8 ad=1.155 pd=7.33 as=1.155 ps=7.33 w=7 l=1