* NGSPICE file created from opamp648.ext - technology: sky130A

.subckt opamp648 gnd CSoutput output vdd plus minus commonsourceibias outputibias
+ diffpairibias
X0 CSoutput.t212 a_n8964_8799.t36 vdd.t290 vdd.t230 sky130_fd_pr__pfet_01v8 ad=1.32 pd=8.33 as=3.12 ps=16.78 w=8 l=0.5
X1 gnd.t341 commonsourceibias.t64 commonsourceibias.t65 gnd.t242 sky130_fd_pr__nfet_01v8 ad=1.155 pd=7.33 as=1.155 ps=7.33 w=7 l=1
X2 a_n2472_13878.t19 a_n2650_13878.t20 a_n2650_13878.t21 vdd.t93 sky130_fd_pr__pfet_01v8 ad=1.485 pd=9.33 as=1.485 ps=9.33 w=9 l=0.5
X3 a_n2472_13878.t27 a_n2650_13878.t56 vdd.t120 vdd.t119 sky130_fd_pr__pfet_01v8 ad=1.485 pd=9.33 as=1.485 ps=9.33 w=9 l=0.5
X4 gnd.t340 commonsourceibias.t80 CSoutput.t214 gnd.t166 sky130_fd_pr__nfet_01v8 ad=1.155 pd=7.33 as=1.155 ps=7.33 w=7 l=1
X5 gnd.t339 commonsourceibias.t81 CSoutput.t57 gnd.t197 sky130_fd_pr__nfet_01v8 ad=1.155 pd=7.33 as=1.155 ps=7.33 w=7 l=1
X6 CSoutput.t88 commonsourceibias.t82 gnd.t338 gnd.t205 sky130_fd_pr__nfet_01v8 ad=1.155 pd=7.33 as=1.155 ps=7.33 w=7 l=1
X7 vdd.t289 a_n8964_8799.t37 CSoutput.t211 vdd.t224 sky130_fd_pr__pfet_01v8 ad=1.32 pd=8.33 as=1.32 ps=8.33 w=8 l=0.5
X8 commonsourceibias.t41 commonsourceibias.t40 gnd.t307 gnd.t173 sky130_fd_pr__nfet_01v8 ad=1.155 pd=7.33 as=1.155 ps=7.33 w=7 l=1
X9 gnd.t337 commonsourceibias.t83 CSoutput.t238 gnd.t154 sky130_fd_pr__nfet_01v8 ad=1.155 pd=7.33 as=1.155 ps=7.33 w=7 l=1
X10 a_n8964_8799.t24 plus.t5 a_n3827_n3924.t23 gnd.t139 sky130_fd_pr__nfet_01v8 ad=1.155 pd=7.33 as=1.155 ps=7.33 w=7 l=0.9
X11 CSoutput.t210 a_n8964_8799.t38 vdd.t288 vdd.t147 sky130_fd_pr__pfet_01v8 ad=1.32 pd=8.33 as=1.32 ps=8.33 w=8 l=0.5
X12 gnd.t306 commonsourceibias.t38 commonsourceibias.t39 gnd.t162 sky130_fd_pr__nfet_01v8 ad=1.155 pd=7.33 as=1.155 ps=7.33 w=7 l=1
X13 a_n3827_n3924.t6 diffpairibias.t20 gnd.t11 gnd.t10 sky130_fd_pr__nfet_01v8 ad=2.73 pd=14.78 as=2.73 ps=14.78 w=7 l=1
X14 CSoutput.t45 commonsourceibias.t84 gnd.t336 gnd.t282 sky130_fd_pr__nfet_01v8 ad=1.155 pd=7.33 as=1.155 ps=7.33 w=7 l=1
X15 CSoutput.t209 a_n8964_8799.t39 vdd.t287 vdd.t139 sky130_fd_pr__pfet_01v8 ad=1.32 pd=8.33 as=1.32 ps=8.33 w=8 l=0.5
X16 minus.t4 gnd.t131 gnd.t133 gnd.t132 sky130_fd_pr__nfet_01v8 ad=0.165 pd=1.33 as=0.165 ps=1.33 w=1 l=0.5
X17 vdd.t286 a_n8964_8799.t40 CSoutput.t208 vdd.t212 sky130_fd_pr__pfet_01v8 ad=1.32 pd=8.33 as=1.32 ps=8.33 w=8 l=0.5
X18 gnd.t305 commonsourceibias.t36 commonsourceibias.t37 gnd.t142 sky130_fd_pr__nfet_01v8 ad=1.155 pd=7.33 as=1.155 ps=7.33 w=7 l=1
X19 a_n2650_8322.t27 a_n2650_13878.t57 a_n8964_8799.t13 vdd.t94 sky130_fd_pr__pfet_01v8 ad=1.485 pd=9.33 as=1.485 ps=9.33 w=9 l=0.5
X20 CSoutput.t207 a_n8964_8799.t41 vdd.t284 vdd.t173 sky130_fd_pr__pfet_01v8 ad=1.32 pd=8.33 as=1.32 ps=8.33 w=8 l=0.5
X21 commonsourceibias.t35 commonsourceibias.t34 gnd.t304 gnd.t193 sky130_fd_pr__nfet_01v8 ad=1.155 pd=7.33 as=1.155 ps=7.33 w=7 l=1
X22 vdd.t285 a_n8964_8799.t42 CSoutput.t206 vdd.t271 sky130_fd_pr__pfet_01v8 ad=1.32 pd=8.33 as=1.32 ps=8.33 w=8 l=0.5
X23 gnd.t335 commonsourceibias.t85 CSoutput.t76 gnd.t234 sky130_fd_pr__nfet_01v8 ad=1.155 pd=7.33 as=1.155 ps=7.33 w=7 l=1
X24 CSoutput.t205 a_n8964_8799.t43 vdd.t283 vdd.t176 sky130_fd_pr__pfet_01v8 ad=1.32 pd=8.33 as=1.32 ps=8.33 w=8 l=0.5
X25 vdd.t282 a_n8964_8799.t44 CSoutput.t204 vdd.t271 sky130_fd_pr__pfet_01v8 ad=1.32 pd=8.33 as=1.32 ps=8.33 w=8 l=0.5
X26 vdd.t281 a_n8964_8799.t45 CSoutput.t203 vdd.t217 sky130_fd_pr__pfet_01v8 ad=1.32 pd=8.33 as=1.32 ps=8.33 w=8 l=0.5
X27 gnd.t130 gnd.t128 gnd.t129 gnd.t55 sky130_fd_pr__nfet_01v8 ad=2.73 pd=14.78 as=0 ps=0 w=7 l=1
X28 a_n2650_13878.t45 minus.t5 a_n3827_n3924.t24 gnd.t4 sky130_fd_pr__nfet_01v8 ad=1.155 pd=7.33 as=1.155 ps=7.33 w=7 l=0.9
X29 a_n8964_8799.t6 plus.t6 a_n3827_n3924.t22 gnd.t3 sky130_fd_pr__nfet_01v8 ad=1.155 pd=7.33 as=1.155 ps=7.33 w=7 l=0.9
X30 a_n8964_8799.t14 a_n2650_13878.t58 a_n2650_8322.t26 vdd.t115 sky130_fd_pr__pfet_01v8 ad=1.485 pd=9.33 as=1.485 ps=9.33 w=9 l=0.5
X31 CSoutput.t213 commonsourceibias.t86 gnd.t334 gnd.t212 sky130_fd_pr__nfet_01v8 ad=1.155 pd=7.33 as=1.155 ps=7.33 w=7 l=1
X32 vdd.t280 a_n8964_8799.t46 CSoutput.t202 vdd.t135 sky130_fd_pr__pfet_01v8 ad=1.32 pd=8.33 as=1.32 ps=8.33 w=8 l=0.5
X33 a_n2650_13878.t54 minus.t6 a_n3827_n3924.t36 gnd.t371 sky130_fd_pr__nfet_01v8 ad=1.155 pd=7.33 as=1.155 ps=7.33 w=7 l=0.9
X34 gnd.t127 gnd.t124 gnd.t126 gnd.t125 sky130_fd_pr__nfet_01v8 ad=2.34 pd=12.78 as=0 ps=0 w=6 l=2
X35 CSoutput.t218 commonsourceibias.t87 gnd.t333 gnd.t158 sky130_fd_pr__nfet_01v8 ad=1.155 pd=7.33 as=1.155 ps=7.33 w=7 l=1
X36 vdd.t279 a_n8964_8799.t47 CSoutput.t201 vdd.t246 sky130_fd_pr__pfet_01v8 ad=1.32 pd=8.33 as=1.32 ps=8.33 w=8 l=0.5
X37 commonsourceibias.t27 commonsourceibias.t26 gnd.t331 gnd.t240 sky130_fd_pr__nfet_01v8 ad=1.155 pd=7.33 as=1.155 ps=7.33 w=7 l=1
X38 a_n8964_8799.t15 a_n2650_13878.t59 a_n2650_8322.t25 vdd.t101 sky130_fd_pr__pfet_01v8 ad=1.485 pd=9.33 as=3.51 ps=18.78 w=9 l=0.5
X39 gnd.t332 commonsourceibias.t88 CSoutput.t92 gnd.t156 sky130_fd_pr__nfet_01v8 ad=1.155 pd=7.33 as=1.155 ps=7.33 w=7 l=1
X40 gnd.t123 gnd.t121 gnd.t122 gnd.t44 sky130_fd_pr__nfet_01v8 ad=2.73 pd=14.78 as=0 ps=0 w=7 l=1
X41 CSoutput.t55 commonsourceibias.t89 gnd.t330 gnd.t181 sky130_fd_pr__nfet_01v8 ad=1.155 pd=7.33 as=1.155 ps=7.33 w=7 l=1
X42 CSoutput.t31 commonsourceibias.t90 gnd.t329 gnd.t282 sky130_fd_pr__nfet_01v8 ad=1.155 pd=7.33 as=1.155 ps=7.33 w=7 l=1
X43 gnd.t328 commonsourceibias.t24 commonsourceibias.t25 gnd.t234 sky130_fd_pr__nfet_01v8 ad=1.155 pd=7.33 as=1.155 ps=7.33 w=7 l=1
X44 outputibias.t7 outputibias.t6 gnd.t368 gnd.t367 sky130_fd_pr__nfet_01v8 ad=2.34 pd=12.78 as=2.34 ps=12.78 w=6 l=2
X45 gnd.t303 commonsourceibias.t6 commonsourceibias.t7 gnd.t150 sky130_fd_pr__nfet_01v8 ad=2.73 pd=14.78 as=1.155 ps=7.33 w=7 l=1
X46 CSoutput.t13 commonsourceibias.t91 gnd.t327 gnd.t245 sky130_fd_pr__nfet_01v8 ad=1.155 pd=7.33 as=1.155 ps=7.33 w=7 l=1
X47 CSoutput.t200 a_n8964_8799.t48 vdd.t278 vdd.t230 sky130_fd_pr__pfet_01v8 ad=1.32 pd=8.33 as=3.12 ps=16.78 w=8 l=0.5
X48 a_n3827_n3924.t21 plus.t7 a_n8964_8799.t16 gnd.t366 sky130_fd_pr__nfet_01v8 ad=2.73 pd=14.78 as=1.155 ps=7.33 w=7 l=0.9
X49 a_n3827_n3924.t0 diffpairibias.t21 gnd.t1 gnd.t0 sky130_fd_pr__nfet_01v8 ad=2.73 pd=14.78 as=2.73 ps=14.78 w=7 l=1
X50 commonsourceibias.t33 commonsourceibias.t32 gnd.t326 gnd.t146 sky130_fd_pr__nfet_01v8 ad=1.155 pd=7.33 as=1.155 ps=7.33 w=7 l=1
X51 a_n3827_n3924.t1 minus.t7 a_n2650_13878.t0 gnd.t2 sky130_fd_pr__nfet_01v8 ad=1.155 pd=7.33 as=1.155 ps=7.33 w=7 l=0.9
X52 CSoutput.t199 a_n8964_8799.t49 vdd.t277 vdd.t196 sky130_fd_pr__pfet_01v8 ad=1.32 pd=8.33 as=1.32 ps=8.33 w=8 l=0.5
X53 vdd.t276 a_n8964_8799.t50 CSoutput.t198 vdd.t135 sky130_fd_pr__pfet_01v8 ad=1.32 pd=8.33 as=1.32 ps=8.33 w=8 l=0.5
X54 CSoutput.t19 commonsourceibias.t92 gnd.t325 gnd.t245 sky130_fd_pr__nfet_01v8 ad=1.155 pd=7.33 as=1.155 ps=7.33 w=7 l=1
X55 CSoutput.t197 a_n8964_8799.t51 vdd.t275 vdd.t139 sky130_fd_pr__pfet_01v8 ad=1.32 pd=8.33 as=1.32 ps=8.33 w=8 l=0.5
X56 vdd.t87 vdd.t85 vdd.t86 vdd.t21 sky130_fd_pr__pfet_01v8 ad=3.51 pd=18.78 as=0 ps=0 w=9 l=0.5
X57 gnd.t324 commonsourceibias.t30 commonsourceibias.t31 gnd.t228 sky130_fd_pr__nfet_01v8 ad=1.155 pd=7.33 as=1.155 ps=7.33 w=7 l=1
X58 CSoutput.t27 commonsourceibias.t93 gnd.t323 gnd.t160 sky130_fd_pr__nfet_01v8 ad=1.155 pd=7.33 as=2.73 ps=14.78 w=7 l=1
X59 vdd.t274 a_n8964_8799.t52 CSoutput.t196 vdd.t212 sky130_fd_pr__pfet_01v8 ad=1.32 pd=8.33 as=1.32 ps=8.33 w=8 l=0.5
X60 a_n2472_13878.t18 a_n2650_13878.t6 a_n2650_13878.t7 vdd.t116 sky130_fd_pr__pfet_01v8 ad=1.485 pd=9.33 as=1.485 ps=9.33 w=9 l=0.5
X61 a_n2650_13878.t11 a_n2650_13878.t10 a_n2472_13878.t17 vdd.t4 sky130_fd_pr__pfet_01v8 ad=1.485 pd=9.33 as=1.485 ps=9.33 w=9 l=0.5
X62 CSoutput.t195 a_n8964_8799.t53 vdd.t273 vdd.t176 sky130_fd_pr__pfet_01v8 ad=1.32 pd=8.33 as=1.32 ps=8.33 w=8 l=0.5
X63 gnd.t120 gnd.t118 plus.t4 gnd.t119 sky130_fd_pr__nfet_01v8 ad=0.165 pd=1.33 as=0.39 ps=2.78 w=1 l=0.5
X64 vdd.t84 vdd.t82 vdd.t83 vdd.t59 sky130_fd_pr__pfet_01v8 ad=3.51 pd=18.78 as=0 ps=0 w=9 l=0.5
X65 vdd.t272 a_n8964_8799.t54 CSoutput.t194 vdd.t271 sky130_fd_pr__pfet_01v8 ad=1.32 pd=8.33 as=1.32 ps=8.33 w=8 l=0.5
X66 vdd.t270 a_n8964_8799.t55 CSoutput.t193 vdd.t217 sky130_fd_pr__pfet_01v8 ad=1.32 pd=8.33 as=1.32 ps=8.33 w=8 l=0.5
X67 a_n3827_n3924.t20 plus.t8 a_n8964_8799.t23 gnd.t9 sky130_fd_pr__nfet_01v8 ad=1.155 pd=7.33 as=1.155 ps=7.33 w=7 l=0.9
X68 CSoutput.t87 commonsourceibias.t94 gnd.t322 gnd.t175 sky130_fd_pr__nfet_01v8 ad=1.155 pd=7.33 as=2.73 ps=14.78 w=7 l=1
X69 vdd.t102 CSoutput.t240 output.t19 gnd.t389 sky130_fd_pr__nfet_01v8 ad=0.825 pd=5.33 as=0.825 ps=5.33 w=5 l=1
X70 gnd.t321 commonsourceibias.t95 CSoutput.t17 gnd.t197 sky130_fd_pr__nfet_01v8 ad=1.155 pd=7.33 as=1.155 ps=7.33 w=7 l=1
X71 diffpairibias.t19 diffpairibias.t18 gnd.t135 gnd.t134 sky130_fd_pr__nfet_01v8 ad=2.73 pd=14.78 as=2.73 ps=14.78 w=7 l=1
X72 CSoutput.t228 commonsourceibias.t96 gnd.t320 gnd.t203 sky130_fd_pr__nfet_01v8 ad=1.155 pd=7.33 as=1.155 ps=7.33 w=7 l=1
X73 a_n2650_13878.t43 a_n2650_13878.t42 a_n2472_13878.t16 vdd.t98 sky130_fd_pr__pfet_01v8 ad=1.485 pd=9.33 as=1.485 ps=9.33 w=9 l=0.5
X74 CSoutput.t192 a_n8964_8799.t56 vdd.t269 vdd.t243 sky130_fd_pr__pfet_01v8 ad=1.32 pd=8.33 as=1.32 ps=8.33 w=8 l=0.5
X75 a_n8964_8799.t21 a_n2650_13878.t60 a_n2650_8322.t24 vdd.t104 sky130_fd_pr__pfet_01v8 ad=1.485 pd=9.33 as=1.485 ps=9.33 w=9 l=0.5
X76 CSoutput.t6 commonsourceibias.t97 gnd.t319 gnd.t256 sky130_fd_pr__nfet_01v8 ad=1.155 pd=7.33 as=1.155 ps=7.33 w=7 l=1
X77 CSoutput.t66 commonsourceibias.t98 gnd.t318 gnd.t225 sky130_fd_pr__nfet_01v8 ad=1.155 pd=7.33 as=1.155 ps=7.33 w=7 l=1
X78 vdd.t268 a_n8964_8799.t57 CSoutput.t191 vdd.t181 sky130_fd_pr__pfet_01v8 ad=1.32 pd=8.33 as=1.32 ps=8.33 w=8 l=0.5
X79 CSoutput.t190 a_n8964_8799.t58 vdd.t267 vdd.t228 sky130_fd_pr__pfet_01v8 ad=1.32 pd=8.33 as=1.32 ps=8.33 w=8 l=0.5
X80 commonsourceibias.t29 commonsourceibias.t28 gnd.t317 gnd.t205 sky130_fd_pr__nfet_01v8 ad=1.155 pd=7.33 as=1.155 ps=7.33 w=7 l=1
X81 a_n2650_13878.t29 a_n2650_13878.t28 a_n2472_13878.t15 vdd.t129 sky130_fd_pr__pfet_01v8 ad=3.51 pd=18.78 as=1.485 ps=9.33 w=9 l=0.5
X82 vdd.t266 a_n8964_8799.t59 CSoutput.t189 vdd.t246 sky130_fd_pr__pfet_01v8 ad=1.32 pd=8.33 as=1.32 ps=8.33 w=8 l=0.5
X83 gnd.t117 gnd.t115 gnd.t116 gnd.t23 sky130_fd_pr__nfet_01v8 ad=2.73 pd=14.78 as=0 ps=0 w=7 l=1
X84 vdd.t265 a_n8964_8799.t60 CSoutput.t188 vdd.t151 sky130_fd_pr__pfet_01v8 ad=1.32 pd=8.33 as=1.32 ps=8.33 w=8 l=0.5
X85 CSoutput.t20 commonsourceibias.t99 gnd.t316 gnd.t282 sky130_fd_pr__nfet_01v8 ad=1.155 pd=7.33 as=1.155 ps=7.33 w=7 l=1
X86 a_n8964_8799.t22 a_n2650_13878.t61 a_n2650_8322.t23 vdd.t105 sky130_fd_pr__pfet_01v8 ad=1.485 pd=9.33 as=3.51 ps=18.78 w=9 l=0.5
X87 diffpairibias.t17 diffpairibias.t16 gnd.t347 gnd.t346 sky130_fd_pr__nfet_01v8 ad=2.73 pd=14.78 as=2.73 ps=14.78 w=7 l=1
X88 CSoutput.t187 a_n8964_8799.t61 vdd.t264 vdd.t158 sky130_fd_pr__pfet_01v8 ad=1.32 pd=8.33 as=1.32 ps=8.33 w=8 l=0.5
X89 gnd.t114 gnd.t112 gnd.t113 gnd.t23 sky130_fd_pr__nfet_01v8 ad=2.73 pd=14.78 as=0 ps=0 w=7 l=1
X90 a_n2650_8322.t22 a_n2650_13878.t62 a_n8964_8799.t19 vdd.t129 sky130_fd_pr__pfet_01v8 ad=3.51 pd=18.78 as=1.485 ps=9.33 w=9 l=0.5
X91 CSoutput.t29 commonsourceibias.t100 gnd.t315 gnd.t175 sky130_fd_pr__nfet_01v8 ad=1.155 pd=7.33 as=2.73 ps=14.78 w=7 l=1
X92 CSoutput.t23 commonsourceibias.t101 gnd.t314 gnd.t225 sky130_fd_pr__nfet_01v8 ad=1.155 pd=7.33 as=1.155 ps=7.33 w=7 l=1
X93 gnd.t111 gnd.t109 gnd.t110 gnd.t59 sky130_fd_pr__nfet_01v8 ad=2.73 pd=14.78 as=0 ps=0 w=7 l=1
X94 CSoutput.t186 a_n8964_8799.t62 vdd.t263 vdd.t200 sky130_fd_pr__pfet_01v8 ad=1.32 pd=8.33 as=1.32 ps=8.33 w=8 l=0.5
X95 a_n3827_n3924.t28 minus.t8 a_n2650_13878.t48 gnd.t5 sky130_fd_pr__nfet_01v8 ad=1.155 pd=7.33 as=1.155 ps=7.33 w=7 l=0.9
X96 a_n3827_n3924.t19 plus.t9 a_n8964_8799.t3 gnd.t8 sky130_fd_pr__nfet_01v8 ad=2.73 pd=14.78 as=1.155 ps=7.33 w=7 l=0.9
X97 gnd.t313 commonsourceibias.t102 CSoutput.t61 gnd.t199 sky130_fd_pr__nfet_01v8 ad=1.155 pd=7.33 as=1.155 ps=7.33 w=7 l=1
X98 CSoutput.t227 commonsourceibias.t103 gnd.t312 gnd.t222 sky130_fd_pr__nfet_01v8 ad=1.155 pd=7.33 as=1.155 ps=7.33 w=7 l=1
X99 gnd.t311 commonsourceibias.t104 CSoutput.t37 gnd.t177 sky130_fd_pr__nfet_01v8 ad=2.73 pd=14.78 as=1.155 ps=7.33 w=7 l=1
X100 gnd.t108 gnd.t106 gnd.t107 gnd.t55 sky130_fd_pr__nfet_01v8 ad=2.73 pd=14.78 as=0 ps=0 w=7 l=1
X101 vdd.t81 vdd.t79 vdd.t80 vdd.t55 sky130_fd_pr__pfet_01v8 ad=3.12 pd=16.78 as=0 ps=0 w=8 l=0.5
X102 output.t3 outputibias.t8 gnd.t401 gnd.t400 sky130_fd_pr__nfet_01v8 ad=2.34 pd=12.78 as=2.34 ps=12.78 w=6 l=2
X103 a_n3827_n3924.t7 diffpairibias.t22 gnd.t13 gnd.t12 sky130_fd_pr__nfet_01v8 ad=2.73 pd=14.78 as=2.73 ps=14.78 w=7 l=1
X104 vdd.t262 a_n8964_8799.t63 CSoutput.t185 vdd.t215 sky130_fd_pr__pfet_01v8 ad=1.32 pd=8.33 as=1.32 ps=8.33 w=8 l=0.5
X105 vdd.t261 a_n8964_8799.t64 CSoutput.t184 vdd.t250 sky130_fd_pr__pfet_01v8 ad=1.32 pd=8.33 as=1.32 ps=8.33 w=8 l=0.5
X106 CSoutput.t232 commonsourceibias.t105 gnd.t310 gnd.t152 sky130_fd_pr__nfet_01v8 ad=1.155 pd=7.33 as=1.155 ps=7.33 w=7 l=1
X107 a_n2650_13878.t9 a_n2650_13878.t8 a_n2472_13878.t14 vdd.t94 sky130_fd_pr__pfet_01v8 ad=1.485 pd=9.33 as=1.485 ps=9.33 w=9 l=0.5
X108 vdd.t260 a_n8964_8799.t65 CSoutput.t183 vdd.t190 sky130_fd_pr__pfet_01v8 ad=3.12 pd=16.78 as=1.32 ps=8.33 w=8 l=0.5
X109 vdd.t259 a_n8964_8799.t66 CSoutput.t182 vdd.t222 sky130_fd_pr__pfet_01v8 ad=1.32 pd=8.33 as=1.32 ps=8.33 w=8 l=0.5
X110 a_n3827_n3924.t18 plus.t10 a_n8964_8799.t17 gnd.t140 sky130_fd_pr__nfet_01v8 ad=1.155 pd=7.33 as=1.155 ps=7.33 w=7 l=0.9
X111 a_n8964_8799.t20 a_n2650_13878.t63 a_n2650_8322.t21 vdd.t130 sky130_fd_pr__pfet_01v8 ad=1.485 pd=9.33 as=1.485 ps=9.33 w=9 l=0.5
X112 a_n2650_13878.t33 a_n2650_13878.t32 a_n2472_13878.t13 vdd.t106 sky130_fd_pr__pfet_01v8 ad=3.51 pd=18.78 as=1.485 ps=9.33 w=9 l=0.5
X113 gnd.t309 commonsourceibias.t106 CSoutput.t5 gnd.t171 sky130_fd_pr__nfet_01v8 ad=1.155 pd=7.33 as=1.155 ps=7.33 w=7 l=1
X114 vdd.t103 CSoutput.t241 output.t18 gnd.t388 sky130_fd_pr__nfet_01v8 ad=0.825 pd=5.33 as=0.825 ps=5.33 w=5 l=1
X115 commonsourceibias.t43 commonsourceibias.t42 gnd.t308 gnd.t181 sky130_fd_pr__nfet_01v8 ad=1.155 pd=7.33 as=1.155 ps=7.33 w=7 l=1
X116 gnd.t302 commonsourceibias.t107 CSoutput.t56 gnd.t195 sky130_fd_pr__nfet_01v8 ad=1.155 pd=7.33 as=1.155 ps=7.33 w=7 l=1
X117 gnd.t105 gnd.t102 gnd.t104 gnd.t103 sky130_fd_pr__nfet_01v8 ad=1.95 pd=10.78 as=0 ps=0 w=5 l=1
X118 CSoutput.t74 commonsourceibias.t108 gnd.t301 gnd.t173 sky130_fd_pr__nfet_01v8 ad=1.155 pd=7.33 as=1.155 ps=7.33 w=7 l=1
X119 vdd.t258 a_n8964_8799.t67 CSoutput.t181 vdd.t155 sky130_fd_pr__pfet_01v8 ad=1.32 pd=8.33 as=1.32 ps=8.33 w=8 l=0.5
X120 CSoutput.t242 a_n2650_8322.t33 sky130_fd_pr__cap_mim_m3_1 l=12 w=12
X121 gnd.t297 commonsourceibias.t2 commonsourceibias.t3 gnd.t179 sky130_fd_pr__nfet_01v8 ad=1.155 pd=7.33 as=1.155 ps=7.33 w=7 l=1
X122 CSoutput.t180 a_n8964_8799.t68 vdd.t257 vdd.t194 sky130_fd_pr__pfet_01v8 ad=1.32 pd=8.33 as=1.32 ps=8.33 w=8 l=0.5
X123 CSoutput.t179 a_n8964_8799.t69 vdd.t256 vdd.t243 sky130_fd_pr__pfet_01v8 ad=1.32 pd=8.33 as=1.32 ps=8.33 w=8 l=0.5
X124 CSoutput.t25 commonsourceibias.t109 gnd.t300 gnd.t245 sky130_fd_pr__nfet_01v8 ad=1.155 pd=7.33 as=1.155 ps=7.33 w=7 l=1
X125 diffpairibias.t15 diffpairibias.t14 gnd.t361 gnd.t360 sky130_fd_pr__nfet_01v8 ad=2.73 pd=14.78 as=2.73 ps=14.78 w=7 l=1
X126 vdd.t78 vdd.t76 vdd.t77 vdd.t63 sky130_fd_pr__pfet_01v8 ad=3.51 pd=18.78 as=0 ps=0 w=9 l=0.5
X127 CSoutput.t178 a_n8964_8799.t70 vdd.t255 vdd.t158 sky130_fd_pr__pfet_01v8 ad=1.32 pd=8.33 as=1.32 ps=8.33 w=8 l=0.5
X128 vdd.t75 vdd.t72 vdd.t74 vdd.t73 sky130_fd_pr__pfet_01v8 ad=3.51 pd=18.78 as=0 ps=0 w=9 l=0.5
X129 gnd.t299 commonsourceibias.t110 CSoutput.t36 gnd.t186 sky130_fd_pr__nfet_01v8 ad=1.155 pd=7.33 as=1.155 ps=7.33 w=7 l=1
X130 CSoutput.t177 a_n8964_8799.t71 vdd.t254 vdd.t131 sky130_fd_pr__pfet_01v8 ad=1.32 pd=8.33 as=1.32 ps=8.33 w=8 l=0.5
X131 vdd.t253 a_n8964_8799.t72 CSoutput.t176 vdd.t250 sky130_fd_pr__pfet_01v8 ad=1.32 pd=8.33 as=1.32 ps=8.33 w=8 l=0.5
X132 vdd.t6 a_n2650_13878.t64 a_n2650_8322.t7 vdd.t5 sky130_fd_pr__pfet_01v8 ad=1.485 pd=9.33 as=1.485 ps=9.33 w=9 l=0.5
X133 gnd.t298 commonsourceibias.t4 commonsourceibias.t5 gnd.t168 sky130_fd_pr__nfet_01v8 ad=1.155 pd=7.33 as=1.155 ps=7.33 w=7 l=1
X134 a_n2650_13878.t41 a_n2650_13878.t40 a_n2472_13878.t12 vdd.t100 sky130_fd_pr__pfet_01v8 ad=1.485 pd=9.33 as=1.485 ps=9.33 w=9 l=0.5
X135 vdd.t71 vdd.t69 vdd.t70 vdd.t39 sky130_fd_pr__pfet_01v8 ad=3.12 pd=16.78 as=0 ps=0 w=8 l=0.5
X136 CSoutput.t60 commonsourceibias.t111 gnd.t296 gnd.t189 sky130_fd_pr__nfet_01v8 ad=1.155 pd=7.33 as=1.155 ps=7.33 w=7 l=1
X137 gnd.t101 gnd.t99 minus.t3 gnd.t100 sky130_fd_pr__nfet_01v8 ad=0.165 pd=1.33 as=0.39 ps=2.78 w=1 l=0.5
X138 CSoutput.t40 commonsourceibias.t112 gnd.t295 gnd.t240 sky130_fd_pr__nfet_01v8 ad=1.155 pd=7.33 as=1.155 ps=7.33 w=7 l=1
X139 a_n2650_8322.t6 a_n2650_13878.t65 vdd.t8 vdd.t7 sky130_fd_pr__pfet_01v8 ad=1.485 pd=9.33 as=1.485 ps=9.33 w=9 l=0.5
X140 CSoutput.t175 a_n8964_8799.t73 vdd.t252 vdd.t200 sky130_fd_pr__pfet_01v8 ad=1.32 pd=8.33 as=1.32 ps=8.33 w=8 l=0.5
X141 a_n3827_n3924.t38 diffpairibias.t23 gnd.t391 gnd.t390 sky130_fd_pr__nfet_01v8 ad=2.73 pd=14.78 as=2.73 ps=14.78 w=7 l=1
X142 gnd.t294 commonsourceibias.t113 CSoutput.t239 gnd.t242 sky130_fd_pr__nfet_01v8 ad=1.155 pd=7.33 as=1.155 ps=7.33 w=7 l=1
X143 gnd.t98 gnd.t96 gnd.t97 gnd.t40 sky130_fd_pr__nfet_01v8 ad=2.73 pd=14.78 as=0 ps=0 w=7 l=0.9
X144 commonsourceibias.t1 commonsourceibias.t0 gnd.t293 gnd.t160 sky130_fd_pr__nfet_01v8 ad=1.155 pd=7.33 as=2.73 ps=14.78 w=7 l=1
X145 vdd.t89 a_n2650_13878.t66 a_n2472_13878.t26 vdd.t88 sky130_fd_pr__pfet_01v8 ad=1.485 pd=9.33 as=1.485 ps=9.33 w=9 l=0.5
X146 gnd.t292 commonsourceibias.t114 CSoutput.t63 gnd.t217 sky130_fd_pr__nfet_01v8 ad=1.155 pd=7.33 as=1.155 ps=7.33 w=7 l=1
X147 commonsourceibias.t75 commonsourceibias.t74 gnd.t291 gnd.t158 sky130_fd_pr__nfet_01v8 ad=1.155 pd=7.33 as=1.155 ps=7.33 w=7 l=1
X148 vdd.t68 vdd.t66 vdd.t67 vdd.t55 sky130_fd_pr__pfet_01v8 ad=3.12 pd=16.78 as=0 ps=0 w=8 l=0.5
X149 vdd.t65 vdd.t62 vdd.t64 vdd.t63 sky130_fd_pr__pfet_01v8 ad=3.51 pd=18.78 as=0 ps=0 w=9 l=0.5
X150 gnd.t290 commonsourceibias.t72 commonsourceibias.t73 gnd.t156 sky130_fd_pr__nfet_01v8 ad=1.155 pd=7.33 as=1.155 ps=7.33 w=7 l=1
X151 output.t17 CSoutput.t243 vdd.t126 gnd.t387 sky130_fd_pr__nfet_01v8 ad=0.825 pd=5.33 as=0.825 ps=5.33 w=5 l=1
X152 CSoutput.t2 commonsourceibias.t115 gnd.t289 gnd.t203 sky130_fd_pr__nfet_01v8 ad=1.155 pd=7.33 as=1.155 ps=7.33 w=7 l=1
X153 gnd.t288 commonsourceibias.t116 CSoutput.t224 gnd.t154 sky130_fd_pr__nfet_01v8 ad=1.155 pd=7.33 as=1.155 ps=7.33 w=7 l=1
X154 vdd.t251 a_n8964_8799.t74 CSoutput.t174 vdd.t250 sky130_fd_pr__pfet_01v8 ad=1.32 pd=8.33 as=1.32 ps=8.33 w=8 l=0.5
X155 vdd.t249 a_n8964_8799.t75 CSoutput.t173 vdd.t222 sky130_fd_pr__pfet_01v8 ad=1.32 pd=8.33 as=1.32 ps=8.33 w=8 l=0.5
X156 CSoutput.t217 commonsourceibias.t117 gnd.t287 gnd.t222 sky130_fd_pr__nfet_01v8 ad=1.155 pd=7.33 as=1.155 ps=7.33 w=7 l=1
X157 a_n8964_8799.t31 plus.t11 a_n3827_n3924.t17 gnd.t351 sky130_fd_pr__nfet_01v8 ad=1.155 pd=7.33 as=2.73 ps=14.78 w=7 l=0.9
X158 commonsourceibias.t71 commonsourceibias.t70 gnd.t286 gnd.t148 sky130_fd_pr__nfet_01v8 ad=1.155 pd=7.33 as=1.155 ps=7.33 w=7 l=1
X159 vdd.t61 vdd.t58 vdd.t60 vdd.t59 sky130_fd_pr__pfet_01v8 ad=3.51 pd=18.78 as=0 ps=0 w=9 l=0.5
X160 a_n2650_8322.t5 a_n2650_13878.t67 vdd.t91 vdd.t90 sky130_fd_pr__pfet_01v8 ad=3.51 pd=18.78 as=1.485 ps=9.33 w=9 l=0.5
X161 a_n8964_8799.t10 a_n2650_13878.t68 a_n2650_8322.t20 vdd.t99 sky130_fd_pr__pfet_01v8 ad=1.485 pd=9.33 as=1.485 ps=9.33 w=9 l=0.5
X162 gnd.t285 commonsourceibias.t118 CSoutput.t1 gnd.t184 sky130_fd_pr__nfet_01v8 ad=1.155 pd=7.33 as=1.155 ps=7.33 w=7 l=1
X163 a_n8964_8799.t18 plus.t12 a_n3827_n3924.t16 gnd.t6 sky130_fd_pr__nfet_01v8 ad=1.155 pd=7.33 as=2.73 ps=14.78 w=7 l=0.9
X164 CSoutput.t172 a_n8964_8799.t76 vdd.t248 vdd.t166 sky130_fd_pr__pfet_01v8 ad=1.32 pd=8.33 as=1.32 ps=8.33 w=8 l=0.5
X165 diffpairibias.t13 diffpairibias.t12 gnd.t359 gnd.t358 sky130_fd_pr__nfet_01v8 ad=2.73 pd=14.78 as=2.73 ps=14.78 w=7 l=1
X166 CSoutput.t244 a_n2650_8322.t32 sky130_fd_pr__cap_mim_m3_1 l=12 w=12
X167 vdd.t247 a_n8964_8799.t77 CSoutput.t171 vdd.t246 sky130_fd_pr__pfet_01v8 ad=1.32 pd=8.33 as=1.32 ps=8.33 w=8 l=0.5
X168 a_n2650_13878.t35 a_n2650_13878.t34 a_n2472_13878.t11 vdd.t95 sky130_fd_pr__pfet_01v8 ad=1.485 pd=9.33 as=1.485 ps=9.33 w=9 l=0.5
X169 vdd.t245 a_n8964_8799.t78 CSoutput.t170 vdd.t155 sky130_fd_pr__pfet_01v8 ad=1.32 pd=8.33 as=1.32 ps=8.33 w=8 l=0.5
X170 a_n8964_8799.t11 a_n2650_13878.t69 a_n2650_8322.t19 vdd.t93 sky130_fd_pr__pfet_01v8 ad=1.485 pd=9.33 as=1.485 ps=9.33 w=9 l=0.5
X171 CSoutput.t169 a_n8964_8799.t79 vdd.t244 vdd.t243 sky130_fd_pr__pfet_01v8 ad=1.32 pd=8.33 as=1.32 ps=8.33 w=8 l=0.5
X172 CSoutput.t168 a_n8964_8799.t80 vdd.t242 vdd.t194 sky130_fd_pr__pfet_01v8 ad=1.32 pd=8.33 as=1.32 ps=8.33 w=8 l=0.5
X173 CSoutput.t167 a_n8964_8799.t81 vdd.t241 vdd.t209 sky130_fd_pr__pfet_01v8 ad=1.32 pd=8.33 as=1.32 ps=8.33 w=8 l=0.5
X174 gnd.t284 commonsourceibias.t68 commonsourceibias.t69 gnd.t154 sky130_fd_pr__nfet_01v8 ad=1.155 pd=7.33 as=1.155 ps=7.33 w=7 l=1
X175 a_n2472_13878.t10 a_n2650_13878.t4 a_n2650_13878.t5 vdd.t130 sky130_fd_pr__pfet_01v8 ad=1.485 pd=9.33 as=1.485 ps=9.33 w=9 l=0.5
X176 commonsourceibias.t67 commonsourceibias.t66 gnd.t283 gnd.t282 sky130_fd_pr__nfet_01v8 ad=1.155 pd=7.33 as=1.155 ps=7.33 w=7 l=1
X177 gnd.t95 gnd.t93 gnd.t94 gnd.t15 sky130_fd_pr__nfet_01v8 ad=2.73 pd=14.78 as=0 ps=0 w=7 l=0.9
X178 gnd.t281 commonsourceibias.t119 CSoutput.t236 gnd.t191 sky130_fd_pr__nfet_01v8 ad=1.155 pd=7.33 as=1.155 ps=7.33 w=7 l=1
X179 vdd.t57 vdd.t54 vdd.t56 vdd.t55 sky130_fd_pr__pfet_01v8 ad=3.12 pd=16.78 as=0 ps=0 w=8 l=0.5
X180 gnd.t92 gnd.t90 gnd.t91 gnd.t59 sky130_fd_pr__nfet_01v8 ad=2.73 pd=14.78 as=0 ps=0 w=7 l=1
X181 output.t16 CSoutput.t245 vdd.t127 gnd.t386 sky130_fd_pr__nfet_01v8 ad=0.825 pd=5.33 as=0.825 ps=5.33 w=5 l=1
X182 vdd.t53 vdd.t51 vdd.t52 vdd.t25 sky130_fd_pr__pfet_01v8 ad=3.12 pd=16.78 as=0 ps=0 w=8 l=0.5
X183 gnd.t280 commonsourceibias.t120 CSoutput.t68 gnd.t168 sky130_fd_pr__nfet_01v8 ad=1.155 pd=7.33 as=1.155 ps=7.33 w=7 l=1
X184 CSoutput.t166 a_n8964_8799.t82 vdd.t240 vdd.t228 sky130_fd_pr__pfet_01v8 ad=1.32 pd=8.33 as=1.32 ps=8.33 w=8 l=0.5
X185 vdd.t108 a_n2650_13878.t70 a_n2650_8322.t4 vdd.t107 sky130_fd_pr__pfet_01v8 ad=1.485 pd=9.33 as=3.51 ps=18.78 w=9 l=0.5
X186 a_n2472_13878.t9 a_n2650_13878.t22 a_n2650_13878.t23 vdd.t115 sky130_fd_pr__pfet_01v8 ad=1.485 pd=9.33 as=1.485 ps=9.33 w=9 l=0.5
X187 output.t2 outputibias.t9 gnd.t350 gnd.t349 sky130_fd_pr__nfet_01v8 ad=2.34 pd=12.78 as=2.34 ps=12.78 w=6 l=2
X188 vdd.t239 a_n8964_8799.t83 CSoutput.t165 vdd.t224 sky130_fd_pr__pfet_01v8 ad=1.32 pd=8.33 as=1.32 ps=8.33 w=8 l=0.5
X189 vdd.t238 a_n8964_8799.t84 CSoutput.t164 vdd.t226 sky130_fd_pr__pfet_01v8 ad=3.12 pd=16.78 as=1.32 ps=8.33 w=8 l=0.5
X190 a_n2650_13878.t46 minus.t9 a_n3827_n3924.t25 gnd.t139 sky130_fd_pr__nfet_01v8 ad=1.155 pd=7.33 as=1.155 ps=7.33 w=7 l=0.9
X191 a_n3827_n3924.t15 plus.t13 a_n8964_8799.t29 gnd.t348 sky130_fd_pr__nfet_01v8 ad=1.155 pd=7.33 as=1.155 ps=7.33 w=7 l=0.9
X192 vdd.t50 vdd.t48 vdd.t49 vdd.t39 sky130_fd_pr__pfet_01v8 ad=3.12 pd=16.78 as=0 ps=0 w=8 l=0.5
X193 a_n2650_13878.t37 a_n2650_13878.t36 a_n2472_13878.t8 vdd.t92 sky130_fd_pr__pfet_01v8 ad=1.485 pd=9.33 as=1.485 ps=9.33 w=9 l=0.5
X194 gnd.t89 gnd.t87 gnd.t88 gnd.t55 sky130_fd_pr__nfet_01v8 ad=2.73 pd=14.78 as=0 ps=0 w=7 l=1
X195 output.t15 CSoutput.t246 vdd.t128 gnd.t385 sky130_fd_pr__nfet_01v8 ad=0.825 pd=5.33 as=0.825 ps=5.33 w=5 l=1
X196 vdd.t96 CSoutput.t247 output.t14 gnd.t384 sky130_fd_pr__nfet_01v8 ad=0.825 pd=5.33 as=0.825 ps=5.33 w=5 l=1
X197 CSoutput.t49 commonsourceibias.t121 gnd.t279 gnd.t152 sky130_fd_pr__nfet_01v8 ad=1.155 pd=7.33 as=1.155 ps=7.33 w=7 l=1
X198 plus.t3 gnd.t84 gnd.t86 gnd.t85 sky130_fd_pr__nfet_01v8 ad=0.165 pd=1.33 as=0.165 ps=1.33 w=1 l=0.5
X199 gnd.t278 commonsourceibias.t122 CSoutput.t71 gnd.t199 sky130_fd_pr__nfet_01v8 ad=1.155 pd=7.33 as=1.155 ps=7.33 w=7 l=1
X200 commonsourceibias.t9 commonsourceibias.t8 gnd.t277 gnd.t212 sky130_fd_pr__nfet_01v8 ad=1.155 pd=7.33 as=1.155 ps=7.33 w=7 l=1
X201 gnd.t276 commonsourceibias.t123 CSoutput.t58 gnd.t197 sky130_fd_pr__nfet_01v8 ad=1.155 pd=7.33 as=1.155 ps=7.33 w=7 l=1
X202 vdd.t237 a_n8964_8799.t85 CSoutput.t163 vdd.t168 sky130_fd_pr__pfet_01v8 ad=1.32 pd=8.33 as=1.32 ps=8.33 w=8 l=0.5
X203 gnd.t275 commonsourceibias.t124 CSoutput.t34 gnd.t195 sky130_fd_pr__nfet_01v8 ad=1.155 pd=7.33 as=1.155 ps=7.33 w=7 l=1
X204 a_n3827_n3924.t35 diffpairibias.t24 gnd.t355 gnd.t354 sky130_fd_pr__nfet_01v8 ad=2.73 pd=14.78 as=2.73 ps=14.78 w=7 l=1
X205 gnd.t83 gnd.t81 minus.t2 gnd.t82 sky130_fd_pr__nfet_01v8 ad=0.165 pd=1.33 as=0.165 ps=1.33 w=1 l=0.5
X206 a_n3827_n3924.t34 diffpairibias.t25 gnd.t353 gnd.t352 sky130_fd_pr__nfet_01v8 ad=2.73 pd=14.78 as=2.73 ps=14.78 w=7 l=1
X207 a_n8964_8799.t30 plus.t14 a_n3827_n3924.t14 gnd.t7 sky130_fd_pr__nfet_01v8 ad=1.155 pd=7.33 as=1.155 ps=7.33 w=7 l=0.9
X208 vdd.t236 a_n8964_8799.t86 CSoutput.t162 vdd.t226 sky130_fd_pr__pfet_01v8 ad=3.12 pd=16.78 as=1.32 ps=8.33 w=8 l=0.5
X209 vdd.t235 a_n8964_8799.t87 CSoutput.t161 vdd.t215 sky130_fd_pr__pfet_01v8 ad=1.32 pd=8.33 as=1.32 ps=8.33 w=8 l=0.5
X210 CSoutput.t160 a_n8964_8799.t88 vdd.t234 vdd.t149 sky130_fd_pr__pfet_01v8 ad=1.32 pd=8.33 as=3.12 ps=16.78 w=8 l=0.5
X211 a_n8964_8799.t33 plus.t15 a_n3827_n3924.t13 gnd.t371 sky130_fd_pr__nfet_01v8 ad=1.155 pd=7.33 as=1.155 ps=7.33 w=7 l=0.9
X212 a_n2472_13878.t7 a_n2650_13878.t30 a_n2650_13878.t31 vdd.t121 sky130_fd_pr__pfet_01v8 ad=1.485 pd=9.33 as=1.485 ps=9.33 w=9 l=0.5
X213 vdd.t47 vdd.t45 vdd.t46 vdd.t17 sky130_fd_pr__pfet_01v8 ad=3.51 pd=18.78 as=0 ps=0 w=9 l=0.5
X214 CSoutput.t159 a_n8964_8799.t89 vdd.t233 vdd.t209 sky130_fd_pr__pfet_01v8 ad=1.32 pd=8.33 as=1.32 ps=8.33 w=8 l=0.5
X215 CSoutput.t248 a_n2650_8322.t31 sky130_fd_pr__cap_mim_m3_1 l=12 w=12
X216 a_n2650_8322.t18 a_n2650_13878.t71 a_n8964_8799.t7 vdd.t98 sky130_fd_pr__pfet_01v8 ad=1.485 pd=9.33 as=1.485 ps=9.33 w=9 l=0.5
X217 CSoutput.t158 a_n8964_8799.t90 vdd.t232 vdd.t133 sky130_fd_pr__pfet_01v8 ad=1.32 pd=8.33 as=1.32 ps=8.33 w=8 l=0.5
X218 CSoutput.t157 a_n8964_8799.t91 vdd.t231 vdd.t230 sky130_fd_pr__pfet_01v8 ad=1.32 pd=8.33 as=3.12 ps=16.78 w=8 l=0.5
X219 CSoutput.t249 a_n2650_8322.t30 sky130_fd_pr__cap_mim_m3_1 l=12 w=12
X220 CSoutput.t85 commonsourceibias.t125 gnd.t274 gnd.t256 sky130_fd_pr__nfet_01v8 ad=1.155 pd=7.33 as=1.155 ps=7.33 w=7 l=1
X221 output.t13 CSoutput.t250 vdd.t97 gnd.t383 sky130_fd_pr__nfet_01v8 ad=0.825 pd=5.33 as=0.825 ps=5.33 w=5 l=1
X222 gnd.t80 gnd.t78 gnd.t79 gnd.t23 sky130_fd_pr__nfet_01v8 ad=2.73 pd=14.78 as=0 ps=0 w=7 l=1
X223 gnd.t273 commonsourceibias.t126 CSoutput.t46 gnd.t217 sky130_fd_pr__nfet_01v8 ad=1.155 pd=7.33 as=1.155 ps=7.33 w=7 l=1
X224 diffpairibias.t11 diffpairibias.t10 gnd.t407 gnd.t406 sky130_fd_pr__nfet_01v8 ad=2.73 pd=14.78 as=2.73 ps=14.78 w=7 l=1
X225 gnd.t77 gnd.t75 gnd.t76 gnd.t44 sky130_fd_pr__nfet_01v8 ad=2.73 pd=14.78 as=0 ps=0 w=7 l=1
X226 a_n2472_13878.t25 a_n2650_13878.t72 vdd.t110 vdd.t109 sky130_fd_pr__pfet_01v8 ad=1.485 pd=9.33 as=1.485 ps=9.33 w=9 l=0.5
X227 a_n2650_13878.t50 minus.t10 a_n3827_n3924.t30 gnd.t138 sky130_fd_pr__nfet_01v8 ad=1.155 pd=7.33 as=1.155 ps=7.33 w=7 l=0.9
X228 vdd.t112 a_n2650_13878.t73 a_n2472_13878.t24 vdd.t111 sky130_fd_pr__pfet_01v8 ad=1.485 pd=9.33 as=1.485 ps=9.33 w=9 l=0.5
X229 gnd.t272 commonsourceibias.t127 CSoutput.t83 gnd.t171 sky130_fd_pr__nfet_01v8 ad=1.155 pd=7.33 as=1.155 ps=7.33 w=7 l=1
X230 CSoutput.t156 a_n8964_8799.t92 vdd.t229 vdd.t228 sky130_fd_pr__pfet_01v8 ad=1.32 pd=8.33 as=1.32 ps=8.33 w=8 l=0.5
X231 gnd.t271 commonsourceibias.t128 CSoutput.t86 gnd.t234 sky130_fd_pr__nfet_01v8 ad=1.155 pd=7.33 as=1.155 ps=7.33 w=7 l=1
X232 CSoutput.t91 commonsourceibias.t129 gnd.t270 gnd.t160 sky130_fd_pr__nfet_01v8 ad=1.155 pd=7.33 as=2.73 ps=14.78 w=7 l=1
X233 a_n3827_n3924.t12 plus.t16 a_n8964_8799.t9 gnd.t2 sky130_fd_pr__nfet_01v8 ad=1.155 pd=7.33 as=1.155 ps=7.33 w=7 l=0.9
X234 vdd.t227 a_n8964_8799.t93 CSoutput.t155 vdd.t226 sky130_fd_pr__pfet_01v8 ad=3.12 pd=16.78 as=1.32 ps=8.33 w=8 l=0.5
X235 vdd.t225 a_n8964_8799.t94 CSoutput.t154 vdd.t224 sky130_fd_pr__pfet_01v8 ad=1.32 pd=8.33 as=1.32 ps=8.33 w=8 l=0.5
X236 output.t12 CSoutput.t251 vdd.t293 gnd.t382 sky130_fd_pr__nfet_01v8 ad=0.825 pd=5.33 as=0.825 ps=5.33 w=5 l=1
X237 vdd.t223 a_n8964_8799.t95 CSoutput.t153 vdd.t222 sky130_fd_pr__pfet_01v8 ad=1.32 pd=8.33 as=1.32 ps=8.33 w=8 l=0.5
X238 CSoutput.t152 a_n8964_8799.t96 vdd.t221 vdd.t188 sky130_fd_pr__pfet_01v8 ad=1.32 pd=8.33 as=1.32 ps=8.33 w=8 l=0.5
X239 outputibias.t5 outputibias.t4 gnd.t365 gnd.t364 sky130_fd_pr__nfet_01v8 ad=2.34 pd=12.78 as=2.34 ps=12.78 w=6 l=2
X240 a_n2472_13878.t6 a_n2650_13878.t38 a_n2650_13878.t39 vdd.t104 sky130_fd_pr__pfet_01v8 ad=1.485 pd=9.33 as=1.485 ps=9.33 w=9 l=0.5
X241 diffpairibias.t9 diffpairibias.t8 gnd.t397 gnd.t396 sky130_fd_pr__nfet_01v8 ad=2.73 pd=14.78 as=2.73 ps=14.78 w=7 l=1
X242 gnd.t269 commonsourceibias.t130 CSoutput.t222 gnd.t191 sky130_fd_pr__nfet_01v8 ad=1.155 pd=7.33 as=1.155 ps=7.33 w=7 l=1
X243 gnd.t268 commonsourceibias.t131 CSoutput.t80 gnd.t166 sky130_fd_pr__nfet_01v8 ad=1.155 pd=7.33 as=1.155 ps=7.33 w=7 l=1
X244 vdd.t220 a_n8964_8799.t97 CSoutput.t151 vdd.t168 sky130_fd_pr__pfet_01v8 ad=1.32 pd=8.33 as=1.32 ps=8.33 w=8 l=0.5
X245 commonsourceibias.t49 commonsourceibias.t48 gnd.t267 gnd.t256 sky130_fd_pr__nfet_01v8 ad=1.155 pd=7.33 as=1.155 ps=7.33 w=7 l=1
X246 a_n3827_n3924.t32 minus.t11 a_n2650_13878.t52 gnd.t141 sky130_fd_pr__nfet_01v8 ad=1.155 pd=7.33 as=1.155 ps=7.33 w=7 l=0.9
X247 a_n2650_8322.t17 a_n2650_13878.t74 a_n8964_8799.t8 vdd.t0 sky130_fd_pr__pfet_01v8 ad=1.485 pd=9.33 as=1.485 ps=9.33 w=9 l=0.5