* NGSPICE file created from opamp418.ext - technology: sky130A

.subckt opamp418 gnd CSoutput output vdd plus minus commonsourceibias outputibias
+ diffpairibias
X0 a_n2140_13878.t22 a_n2318_13878.t30 a_n2318_13878.t31 vdd.t220 sky130_fd_pr__pfet_01v8 ad=1.485 pd=9.33 as=1.485 ps=9.33 w=9 l=0.5
X1 CSoutput.t107 a_n7636_8799.t32 vdd.t252 vdd.t108 sky130_fd_pr__pfet_01v8 ad=1.32 pd=8.33 as=1.32 ps=8.33 w=8 l=0.5
X2 a_n2140_13878.t6 a_n2318_13878.t48 vdd.t231 vdd.t230 sky130_fd_pr__pfet_01v8 ad=1.485 pd=9.33 as=1.485 ps=9.33 w=9 l=0.5
X3 vdd.t253 a_n7636_8799.t33 CSoutput.t106 vdd.t175 sky130_fd_pr__pfet_01v8 ad=1.32 pd=8.33 as=1.32 ps=8.33 w=8 l=0.5
X4 gnd.t134 commonsourceibias.t8 commonsourceibias.t9 gnd.t72 sky130_fd_pr__nfet_01v8 ad=1.155 pd=7.33 as=1.155 ps=7.33 w=7 l=1
X5 a_n7636_8799.t4 plus.t5 a_n3827_n3924.t33 gnd.t190 sky130_fd_pr__nfet_01v8 ad=1.155 pd=7.33 as=1.155 ps=7.33 w=7 l=0.9
X6 commonsourceibias.t7 commonsourceibias.t6 gnd.t133 gnd.t33 sky130_fd_pr__nfet_01v8 ad=1.155 pd=7.33 as=1.155 ps=7.33 w=7 l=1
X7 CSoutput.t105 a_n7636_8799.t34 vdd.t120 vdd.t119 sky130_fd_pr__pfet_01v8 ad=1.32 pd=8.33 as=1.32 ps=8.33 w=8 l=0.5
X8 a_n3827_n3924.t15 diffpairibias.t20 gnd.t168 gnd.t167 sky130_fd_pr__nfet_01v8 ad=2.73 pd=14.78 as=2.73 ps=14.78 w=7 l=1
X9 minus.t4 gnd.t314 gnd.t316 gnd.t315 sky130_fd_pr__nfet_01v8 ad=0.165 pd=1.33 as=0.165 ps=1.33 w=1 l=0.5
X10 vdd.t94 vdd.t92 vdd.t93 vdd.t53 sky130_fd_pr__pfet_01v8 ad=3.12 pd=16.78 as=0 ps=0 w=8 l=0.5
X11 a_n2318_8322.t27 a_n2318_13878.t49 a_n7636_8799.t19 vdd.t229 sky130_fd_pr__pfet_01v8 ad=1.485 pd=9.33 as=1.485 ps=9.33 w=9 l=0.5
X12 gnd.t132 commonsourceibias.t4 commonsourceibias.t5 gnd.t19 sky130_fd_pr__nfet_01v8 ad=1.155 pd=7.33 as=1.155 ps=7.33 w=7 l=1
X13 gnd.t131 commonsourceibias.t48 CSoutput.t153 gnd.t67 sky130_fd_pr__nfet_01v8 ad=1.155 pd=7.33 as=1.155 ps=7.33 w=7 l=1
X14 commonsourceibias.t3 commonsourceibias.t2 gnd.t130 gnd.t41 sky130_fd_pr__nfet_01v8 ad=1.155 pd=7.33 as=1.155 ps=7.33 w=7 l=1
X15 CSoutput.t104 a_n7636_8799.t35 vdd.t122 vdd.t121 sky130_fd_pr__pfet_01v8 ad=1.32 pd=8.33 as=1.32 ps=8.33 w=8 l=0.5
X16 vdd.t10 a_n7636_8799.t36 CSoutput.t103 vdd.t9 sky130_fd_pr__pfet_01v8 ad=1.32 pd=8.33 as=1.32 ps=8.33 w=8 l=0.5
X17 output.t3 outputibias.t8 gnd.t321 gnd.t320 sky130_fd_pr__nfet_01v8 ad=2.34 pd=12.78 as=2.34 ps=12.78 w=6 l=2
X18 gnd.t313 gnd.t311 gnd.t312 gnd.t235 sky130_fd_pr__nfet_01v8 ad=2.73 pd=14.78 as=0 ps=0 w=7 l=1
X19 a_n7636_8799.t16 a_n2318_13878.t50 a_n2318_8322.t26 vdd.t218 sky130_fd_pr__pfet_01v8 ad=1.485 pd=9.33 as=3.51 ps=18.78 w=9 l=0.5
X20 a_n2318_13878.t1 minus.t5 a_n3827_n3924.t1 gnd.t6 sky130_fd_pr__nfet_01v8 ad=1.155 pd=7.33 as=1.155 ps=7.33 w=7 l=0.9
X21 a_n7636_8799.t9 plus.t6 a_n3827_n3924.t32 gnd.t189 sky130_fd_pr__nfet_01v8 ad=1.155 pd=7.33 as=1.155 ps=7.33 w=7 l=0.9
X22 CSoutput.t102 a_n7636_8799.t37 vdd.t12 vdd.t11 sky130_fd_pr__pfet_01v8 ad=1.32 pd=8.33 as=1.32 ps=8.33 w=8 l=0.5
X23 vdd.t138 a_n7636_8799.t38 CSoutput.t101 vdd.t137 sky130_fd_pr__pfet_01v8 ad=1.32 pd=8.33 as=1.32 ps=8.33 w=8 l=0.5
X24 a_n2318_13878.t4 minus.t6 a_n3827_n3924.t6 gnd.t135 sky130_fd_pr__nfet_01v8 ad=1.155 pd=7.33 as=1.155 ps=7.33 w=7 l=0.9
X25 vdd.t140 a_n7636_8799.t39 CSoutput.t100 vdd.t139 sky130_fd_pr__pfet_01v8 ad=1.32 pd=8.33 as=1.32 ps=8.33 w=8 l=0.5
X26 a_n7636_8799.t20 a_n2318_13878.t51 a_n2318_8322.t25 vdd.t185 sky130_fd_pr__pfet_01v8 ad=1.485 pd=9.33 as=3.51 ps=18.78 w=9 l=0.5
X27 commonsourceibias.t1 commonsourceibias.t0 gnd.t129 gnd.t70 sky130_fd_pr__nfet_01v8 ad=1.155 pd=7.33 as=1.155 ps=7.33 w=7 l=1
X28 gnd.t128 commonsourceibias.t49 CSoutput.t6 gnd.t27 sky130_fd_pr__nfet_01v8 ad=1.155 pd=7.33 as=1.155 ps=7.33 w=7 l=1
X29 CSoutput.t4 commonsourceibias.t50 gnd.t127 gnd.t39 sky130_fd_pr__nfet_01v8 ad=1.155 pd=7.33 as=1.155 ps=7.33 w=7 l=1
X30 gnd.t310 gnd.t307 gnd.t309 gnd.t308 sky130_fd_pr__nfet_01v8 ad=1.95 pd=10.78 as=0 ps=0 w=5 l=1
X31 gnd.t306 gnd.t303 gnd.t305 gnd.t304 sky130_fd_pr__nfet_01v8 ad=2.34 pd=12.78 as=0 ps=0 w=6 l=2
X32 vdd.t91 vdd.t89 vdd.t90 vdd.t20 sky130_fd_pr__pfet_01v8 ad=3.51 pd=18.78 as=0 ps=0 w=9 l=0.5
X33 CSoutput.t99 a_n7636_8799.t40 vdd.t109 vdd.t108 sky130_fd_pr__pfet_01v8 ad=1.32 pd=8.33 as=1.32 ps=8.33 w=8 l=0.5
X34 a_n3827_n3924.t31 plus.t7 a_n7636_8799.t14 gnd.t317 sky130_fd_pr__nfet_01v8 ad=2.73 pd=14.78 as=1.155 ps=7.33 w=7 l=0.9
X35 gnd.t125 commonsourceibias.t20 commonsourceibias.t21 gnd.t67 sky130_fd_pr__nfet_01v8 ad=1.155 pd=7.33 as=1.155 ps=7.33 w=7 l=1
X36 CSoutput.t98 a_n7636_8799.t41 vdd.t111 vdd.t110 sky130_fd_pr__pfet_01v8 ad=1.32 pd=8.33 as=3.12 ps=16.78 w=8 l=0.5
X37 a_n3827_n3924.t3 minus.t7 a_n2318_13878.t3 gnd.t10 sky130_fd_pr__nfet_01v8 ad=1.155 pd=7.33 as=1.155 ps=7.33 w=7 l=0.9
X38 a_n3827_n3924.t38 diffpairibias.t21 gnd.t323 gnd.t322 sky130_fd_pr__nfet_01v8 ad=2.73 pd=14.78 as=2.73 ps=14.78 w=7 l=1
X39 commonsourceibias.t23 commonsourceibias.t22 gnd.t126 gnd.t21 sky130_fd_pr__nfet_01v8 ad=1.155 pd=7.33 as=2.73 ps=14.78 w=7 l=1
X40 CSoutput.t97 a_n7636_8799.t42 vdd.t238 vdd.t119 sky130_fd_pr__pfet_01v8 ad=1.32 pd=8.33 as=1.32 ps=8.33 w=8 l=0.5
X41 CSoutput.t3 commonsourceibias.t51 gnd.t124 gnd.t29 sky130_fd_pr__nfet_01v8 ad=1.155 pd=7.33 as=2.73 ps=14.78 w=7 l=1
X42 gnd.t123 commonsourceibias.t18 commonsourceibias.t19 gnd.t59 sky130_fd_pr__nfet_01v8 ad=1.155 pd=7.33 as=1.155 ps=7.33 w=7 l=1
X43 a_n2140_13878.t21 a_n2318_13878.t38 a_n2318_13878.t39 vdd.t193 sky130_fd_pr__pfet_01v8 ad=1.485 pd=9.33 as=1.485 ps=9.33 w=9 l=0.5
X44 a_n2318_13878.t37 a_n2318_13878.t36 a_n2140_13878.t20 vdd.t203 sky130_fd_pr__pfet_01v8 ad=1.485 pd=9.33 as=1.485 ps=9.33 w=9 l=0.5
X45 vdd.t88 vdd.t86 vdd.t87 vdd.t53 sky130_fd_pr__pfet_01v8 ad=3.12 pd=16.78 as=0 ps=0 w=8 l=0.5
X46 CSoutput.t96 a_n7636_8799.t43 vdd.t239 vdd.t121 sky130_fd_pr__pfet_01v8 ad=1.32 pd=8.33 as=1.32 ps=8.33 w=8 l=0.5
X47 gnd.t302 gnd.t300 plus.t4 gnd.t301 sky130_fd_pr__nfet_01v8 ad=0.165 pd=1.33 as=0.39 ps=2.78 w=1 l=0.5
X48 output.t2 outputibias.t9 gnd.t319 gnd.t318 sky130_fd_pr__nfet_01v8 ad=2.34 pd=12.78 as=2.34 ps=12.78 w=6 l=2
X49 vdd.t85 vdd.t83 vdd.t84 vdd.t66 sky130_fd_pr__pfet_01v8 ad=3.51 pd=18.78 as=0 ps=0 w=9 l=0.5
X50 vdd.t167 a_n7636_8799.t44 CSoutput.t95 vdd.t9 sky130_fd_pr__pfet_01v8 ad=1.32 pd=8.33 as=1.32 ps=8.33 w=8 l=0.5
X51 a_n3827_n3924.t30 plus.t8 a_n7636_8799.t15 gnd.t149 sky130_fd_pr__nfet_01v8 ad=1.155 pd=7.33 as=1.155 ps=7.33 w=7 l=0.9
X52 diffpairibias.t19 diffpairibias.t18 gnd.t151 gnd.t150 sky130_fd_pr__nfet_01v8 ad=2.73 pd=14.78 as=2.73 ps=14.78 w=7 l=1
X53 a_n7636_8799.t28 a_n2318_13878.t52 a_n2318_8322.t24 vdd.t211 sky130_fd_pr__pfet_01v8 ad=1.485 pd=9.33 as=1.485 ps=9.33 w=9 l=0.5
X54 vdd.t168 a_n7636_8799.t45 CSoutput.t94 vdd.t139 sky130_fd_pr__pfet_01v8 ad=1.32 pd=8.33 as=1.32 ps=8.33 w=8 l=0.5
X55 vdd.t153 a_n7636_8799.t46 CSoutput.t93 vdd.t152 sky130_fd_pr__pfet_01v8 ad=1.32 pd=8.33 as=1.32 ps=8.33 w=8 l=0.5
X56 CSoutput.t92 a_n7636_8799.t47 vdd.t154 vdd.t129 sky130_fd_pr__pfet_01v8 ad=1.32 pd=8.33 as=1.32 ps=8.33 w=8 l=0.5
X57 CSoutput.t148 commonsourceibias.t52 gnd.t122 gnd.t61 sky130_fd_pr__nfet_01v8 ad=1.155 pd=7.33 as=1.155 ps=7.33 w=7 l=1
X58 gnd.t299 gnd.t297 gnd.t298 gnd.t206 sky130_fd_pr__nfet_01v8 ad=2.73 pd=14.78 as=0 ps=0 w=7 l=1
X59 CSoutput.t139 commonsourceibias.t53 gnd.t121 gnd.t82 sky130_fd_pr__nfet_01v8 ad=1.155 pd=7.33 as=1.155 ps=7.33 w=7 l=1
X60 diffpairibias.t17 diffpairibias.t16 gnd.t5 gnd.t4 sky130_fd_pr__nfet_01v8 ad=2.73 pd=14.78 as=2.73 ps=14.78 w=7 l=1
X61 CSoutput.t91 a_n7636_8799.t48 vdd.t261 vdd.t95 sky130_fd_pr__pfet_01v8 ad=1.32 pd=8.33 as=1.32 ps=8.33 w=8 l=0.5
X62 gnd.t296 gnd.t294 gnd.t295 gnd.t206 sky130_fd_pr__nfet_01v8 ad=2.73 pd=14.78 as=0 ps=0 w=7 l=1
X63 CSoutput.t168 a_n2318_8322.t3 sky130_fd_pr__cap_mim_m3_1 l=12 w=12
X64 CSoutput.t90 a_n7636_8799.t49 vdd.t262 vdd.t134 sky130_fd_pr__pfet_01v8 ad=1.32 pd=8.33 as=1.32 ps=8.33 w=8 l=0.5
X65 vdd.t132 a_n7636_8799.t50 CSoutput.t89 vdd.t13 sky130_fd_pr__pfet_01v8 ad=1.32 pd=8.33 as=1.32 ps=8.33 w=8 l=0.5
X66 CSoutput.t158 commonsourceibias.t54 gnd.t120 gnd.t61 sky130_fd_pr__nfet_01v8 ad=1.155 pd=7.33 as=1.155 ps=7.33 w=7 l=1
X67 CSoutput.t88 a_n7636_8799.t51 vdd.t133 vdd.t123 sky130_fd_pr__pfet_01v8 ad=1.32 pd=8.33 as=3.12 ps=16.78 w=8 l=0.5
X68 CSoutput.t87 a_n7636_8799.t52 vdd.t135 vdd.t134 sky130_fd_pr__pfet_01v8 ad=1.32 pd=8.33 as=1.32 ps=8.33 w=8 l=0.5
X69 CSoutput.t86 a_n7636_8799.t53 vdd.t136 vdd.t110 sky130_fd_pr__pfet_01v8 ad=1.32 pd=8.33 as=3.12 ps=16.78 w=8 l=0.5
X70 a_n3827_n3924.t35 minus.t8 a_n2318_13878.t43 gnd.t192 sky130_fd_pr__nfet_01v8 ad=1.155 pd=7.33 as=1.155 ps=7.33 w=7 l=0.9
X71 a_n3827_n3924.t29 plus.t9 a_n7636_8799.t2 gnd.t0 sky130_fd_pr__nfet_01v8 ad=2.73 pd=14.78 as=1.155 ps=7.33 w=7 l=0.9
X72 gnd.t119 commonsourceibias.t55 CSoutput.t150 gnd.t47 sky130_fd_pr__nfet_01v8 ad=2.73 pd=14.78 as=1.155 ps=7.33 w=7 l=1
X73 output.t19 CSoutput.t169 vdd.t183 gnd.t186 sky130_fd_pr__nfet_01v8 ad=0.825 pd=5.33 as=0.825 ps=5.33 w=5 l=1
X74 gnd.t118 commonsourceibias.t56 CSoutput.t151 gnd.t35 sky130_fd_pr__nfet_01v8 ad=2.73 pd=14.78 as=1.155 ps=7.33 w=7 l=1
X75 CSoutput.t155 commonsourceibias.t57 gnd.t117 gnd.t56 sky130_fd_pr__nfet_01v8 ad=1.155 pd=7.33 as=1.155 ps=7.33 w=7 l=1
X76 CSoutput.t170 a_n2318_8322.t1 sky130_fd_pr__cap_mim_m3_1 l=12 w=12
X77 gnd.t293 gnd.t291 gnd.t292 gnd.t235 sky130_fd_pr__nfet_01v8 ad=2.73 pd=14.78 as=0 ps=0 w=7 l=1
X78 vdd.t180 a_n7636_8799.t54 CSoutput.t85 vdd.t2 sky130_fd_pr__pfet_01v8 ad=1.32 pd=8.33 as=1.32 ps=8.33 w=8 l=0.5
X79 a_n3827_n3924.t39 diffpairibias.t22 gnd.t325 gnd.t324 sky130_fd_pr__nfet_01v8 ad=2.73 pd=14.78 as=2.73 ps=14.78 w=7 l=1
X80 vdd.t181 a_n7636_8799.t55 CSoutput.t84 vdd.t137 sky130_fd_pr__pfet_01v8 ad=1.32 pd=8.33 as=1.32 ps=8.33 w=8 l=0.5
X81 vdd.t142 a_n7636_8799.t56 CSoutput.t83 vdd.t141 sky130_fd_pr__pfet_01v8 ad=1.32 pd=8.33 as=1.32 ps=8.33 w=8 l=0.5
X82 a_n7636_8799.t21 a_n2318_13878.t53 a_n2318_8322.t23 vdd.t219 sky130_fd_pr__pfet_01v8 ad=1.485 pd=9.33 as=1.485 ps=9.33 w=9 l=0.5
X83 a_n2318_13878.t33 a_n2318_13878.t32 a_n2140_13878.t19 vdd.t229 sky130_fd_pr__pfet_01v8 ad=1.485 pd=9.33 as=1.485 ps=9.33 w=9 l=0.5
X84 a_n3827_n3924.t28 plus.t10 a_n7636_8799.t0 gnd.t1 sky130_fd_pr__nfet_01v8 ad=1.155 pd=7.33 as=1.155 ps=7.33 w=7 l=0.9
X85 CSoutput.t120 commonsourceibias.t58 gnd.t116 gnd.t23 sky130_fd_pr__nfet_01v8 ad=1.155 pd=7.33 as=1.155 ps=7.33 w=7 l=1
X86 a_n2318_13878.t13 a_n2318_13878.t12 a_n2140_13878.t18 vdd.t188 sky130_fd_pr__pfet_01v8 ad=3.51 pd=18.78 as=1.485 ps=9.33 w=9 l=0.5
X87 outputibias.t7 outputibias.t6 gnd.t327 gnd.t326 sky130_fd_pr__nfet_01v8 ad=2.34 pd=12.78 as=2.34 ps=12.78 w=6 l=2
X88 CSoutput.t152 commonsourceibias.t59 gnd.t115 gnd.t33 sky130_fd_pr__nfet_01v8 ad=1.155 pd=7.33 as=1.155 ps=7.33 w=7 l=1
X89 gnd.t114 commonsourceibias.t60 CSoutput.t118 gnd.t45 sky130_fd_pr__nfet_01v8 ad=1.155 pd=7.33 as=1.155 ps=7.33 w=7 l=1
X90 commonsourceibias.t11 commonsourceibias.t10 gnd.t113 gnd.t39 sky130_fd_pr__nfet_01v8 ad=1.155 pd=7.33 as=1.155 ps=7.33 w=7 l=1
X91 CSoutput.t82 a_n7636_8799.t57 vdd.t143 vdd.t125 sky130_fd_pr__pfet_01v8 ad=1.32 pd=8.33 as=1.32 ps=8.33 w=8 l=0.5
X92 vdd.t148 a_n7636_8799.t58 CSoutput.t81 vdd.t147 sky130_fd_pr__pfet_01v8 ad=1.32 pd=8.33 as=1.32 ps=8.33 w=8 l=0.5
X93 gnd.t290 gnd.t288 gnd.t289 gnd.t231 sky130_fd_pr__nfet_01v8 ad=2.73 pd=14.78 as=0 ps=0 w=7 l=1
X94 diffpairibias.t15 diffpairibias.t14 gnd.t142 gnd.t141 sky130_fd_pr__nfet_01v8 ad=2.73 pd=14.78 as=2.73 ps=14.78 w=7 l=1
X95 outputibias.t5 outputibias.t4 gnd.t188 gnd.t187 sky130_fd_pr__nfet_01v8 ad=2.34 pd=12.78 as=2.34 ps=12.78 w=6 l=2
X96 vdd.t82 vdd.t80 vdd.t81 vdd.t32 sky130_fd_pr__pfet_01v8 ad=3.12 pd=16.78 as=0 ps=0 w=8 l=0.5
X97 CSoutput.t80 a_n7636_8799.t59 vdd.t149 vdd.t95 sky130_fd_pr__pfet_01v8 ad=1.32 pd=8.33 as=1.32 ps=8.33 w=8 l=0.5
X98 vdd.t79 vdd.t77 vdd.t78 vdd.t70 sky130_fd_pr__pfet_01v8 ad=3.51 pd=18.78 as=0 ps=0 w=9 l=0.5
X99 vdd.t76 vdd.t73 vdd.t75 vdd.t74 sky130_fd_pr__pfet_01v8 ad=3.51 pd=18.78 as=0 ps=0 w=9 l=0.5
X100 a_n2318_8322.t11 a_n2318_13878.t54 vdd.t228 vdd.t227 sky130_fd_pr__pfet_01v8 ad=1.485 pd=9.33 as=1.485 ps=9.33 w=9 l=0.5
X101 vdd.t226 a_n2318_13878.t55 a_n2318_8322.t10 vdd.t225 sky130_fd_pr__pfet_01v8 ad=1.485 pd=9.33 as=1.485 ps=9.33 w=9 l=0.5
X102 a_n2318_13878.t21 a_n2318_13878.t20 a_n2140_13878.t17 vdd.t195 sky130_fd_pr__pfet_01v8 ad=3.51 pd=18.78 as=1.485 ps=9.33 w=9 l=0.5
X103 gnd.t287 gnd.t285 minus.t3 gnd.t286 sky130_fd_pr__nfet_01v8 ad=0.165 pd=1.33 as=0.39 ps=2.78 w=1 l=0.5
X104 CSoutput.t146 commonsourceibias.t61 gnd.t112 gnd.t70 sky130_fd_pr__nfet_01v8 ad=1.155 pd=7.33 as=1.155 ps=7.33 w=7 l=1
X105 output.t18 CSoutput.t171 vdd.t155 gnd.t185 sky130_fd_pr__nfet_01v8 ad=0.825 pd=5.33 as=0.825 ps=5.33 w=5 l=1
X106 gnd.t111 commonsourceibias.t28 commonsourceibias.t29 gnd.t31 sky130_fd_pr__nfet_01v8 ad=1.155 pd=7.33 as=1.155 ps=7.33 w=7 l=1
X107 CSoutput.t79 a_n7636_8799.t60 vdd.t236 vdd.t123 sky130_fd_pr__pfet_01v8 ad=1.32 pd=8.33 as=3.12 ps=16.78 w=8 l=0.5
X108 CSoutput.t78 a_n7636_8799.t61 vdd.t237 vdd.t134 sky130_fd_pr__pfet_01v8 ad=1.32 pd=8.33 as=1.32 ps=8.33 w=8 l=0.5
X109 gnd.t110 commonsourceibias.t62 CSoutput.t112 gnd.t72 sky130_fd_pr__nfet_01v8 ad=1.155 pd=7.33 as=1.155 ps=7.33 w=7 l=1
X110 a_n3827_n3924.t9 diffpairibias.t23 gnd.t144 gnd.t143 sky130_fd_pr__nfet_01v8 ad=2.73 pd=14.78 as=2.73 ps=14.78 w=7 l=1
X111 gnd.t284 gnd.t282 gnd.t283 gnd.t227 sky130_fd_pr__nfet_01v8 ad=2.73 pd=14.78 as=0 ps=0 w=7 l=0.9
X112 vdd.t224 a_n2318_13878.t56 a_n2140_13878.t3 vdd.t223 sky130_fd_pr__pfet_01v8 ad=1.485 pd=9.33 as=1.485 ps=9.33 w=9 l=0.5
X113 commonsourceibias.t27 commonsourceibias.t26 gnd.t109 gnd.t29 sky130_fd_pr__nfet_01v8 ad=1.155 pd=7.33 as=2.73 ps=14.78 w=7 l=1
X114 gnd.t108 commonsourceibias.t63 CSoutput.t131 gnd.t17 sky130_fd_pr__nfet_01v8 ad=1.155 pd=7.33 as=1.155 ps=7.33 w=7 l=1
X115 vdd.t72 vdd.t69 vdd.t71 vdd.t70 sky130_fd_pr__pfet_01v8 ad=3.51 pd=18.78 as=0 ps=0 w=9 l=0.5
X116 gnd.t281 gnd.t279 gnd.t280 gnd.t202 sky130_fd_pr__nfet_01v8 ad=2.73 pd=14.78 as=0 ps=0 w=7 l=1
X117 gnd.t107 commonsourceibias.t24 commonsourceibias.t25 gnd.t27 sky130_fd_pr__nfet_01v8 ad=1.155 pd=7.33 as=1.155 ps=7.33 w=7 l=1
X118 gnd.t278 gnd.t276 gnd.t277 gnd.t231 sky130_fd_pr__nfet_01v8 ad=2.73 pd=14.78 as=0 ps=0 w=7 l=1
X119 vdd.t266 a_n7636_8799.t62 CSoutput.t77 vdd.t137 sky130_fd_pr__pfet_01v8 ad=1.32 pd=8.33 as=1.32 ps=8.33 w=8 l=0.5
X120 CSoutput.t165 commonsourceibias.t64 gnd.t106 gnd.t56 sky130_fd_pr__nfet_01v8 ad=1.155 pd=7.33 as=1.155 ps=7.33 w=7 l=1
X121 a_n7636_8799.t17 a_n2318_13878.t57 a_n2318_8322.t22 vdd.t194 sky130_fd_pr__pfet_01v8 ad=1.485 pd=9.33 as=1.485 ps=9.33 w=9 l=0.5
X122 a_n2318_8322.t9 a_n2318_13878.t58 vdd.t222 vdd.t221 sky130_fd_pr__pfet_01v8 ad=3.51 pd=18.78 as=1.485 ps=9.33 w=9 l=0.5
X123 vdd.t68 vdd.t65 vdd.t67 vdd.t66 sky130_fd_pr__pfet_01v8 ad=3.51 pd=18.78 as=0 ps=0 w=9 l=0.5
X124 a_n7636_8799.t7 plus.t11 a_n3827_n3924.t27 gnd.t191 sky130_fd_pr__nfet_01v8 ad=1.155 pd=7.33 as=2.73 ps=14.78 w=7 l=0.9
X125 gnd.t105 commonsourceibias.t65 CSoutput.t140 gnd.t37 sky130_fd_pr__nfet_01v8 ad=1.155 pd=7.33 as=1.155 ps=7.33 w=7 l=1
X126 commonsourceibias.t31 commonsourceibias.t30 gnd.t104 gnd.t15 sky130_fd_pr__nfet_01v8 ad=1.155 pd=7.33 as=1.155 ps=7.33 w=7 l=1
X127 vdd.t267 a_n7636_8799.t63 CSoutput.t76 vdd.t147 sky130_fd_pr__pfet_01v8 ad=1.32 pd=8.33 as=1.32 ps=8.33 w=8 l=0.5
X128 vdd.t164 a_n7636_8799.t64 CSoutput.t75 vdd.t139 sky130_fd_pr__pfet_01v8 ad=1.32 pd=8.33 as=1.32 ps=8.33 w=8 l=0.5
X129 a_n2318_13878.t17 a_n2318_13878.t16 a_n2140_13878.t16 vdd.t206 sky130_fd_pr__pfet_01v8 ad=1.485 pd=9.33 as=1.485 ps=9.33 w=9 l=0.5
X130 CSoutput.t74 a_n7636_8799.t65 vdd.t165 vdd.t103 sky130_fd_pr__pfet_01v8 ad=1.32 pd=8.33 as=1.32 ps=8.33 w=8 l=0.5
X131 a_n7636_8799.t6 plus.t12 a_n3827_n3924.t26 gnd.t158 sky130_fd_pr__nfet_01v8 ad=1.155 pd=7.33 as=2.73 ps=14.78 w=7 l=0.9
X132 diffpairibias.t13 diffpairibias.t12 gnd.t3 gnd.t2 sky130_fd_pr__nfet_01v8 ad=2.73 pd=14.78 as=2.73 ps=14.78 w=7 l=1
X133 CSoutput.t73 a_n7636_8799.t66 vdd.t255 vdd.t125 sky130_fd_pr__pfet_01v8 ad=1.32 pd=8.33 as=1.32 ps=8.33 w=8 l=0.5
X134 a_n7636_8799.t30 a_n2318_13878.t59 a_n2318_8322.t21 vdd.t220 sky130_fd_pr__pfet_01v8 ad=1.485 pd=9.33 as=1.485 ps=9.33 w=9 l=0.5
X135 a_n2140_13878.t15 a_n2318_13878.t28 a_n2318_13878.t29 vdd.t219 sky130_fd_pr__pfet_01v8 ad=1.485 pd=9.33 as=1.485 ps=9.33 w=9 l=0.5
X136 gnd.t275 gnd.t273 gnd.t274 gnd.t198 sky130_fd_pr__nfet_01v8 ad=2.73 pd=14.78 as=0 ps=0 w=7 l=0.9
X137 vdd.t64 vdd.t62 vdd.t63 vdd.t32 sky130_fd_pr__pfet_01v8 ad=3.12 pd=16.78 as=0 ps=0 w=8 l=0.5
X138 gnd.t103 commonsourceibias.t66 CSoutput.t113 gnd.t43 sky130_fd_pr__nfet_01v8 ad=1.155 pd=7.33 as=1.155 ps=7.33 w=7 l=1
X139 gnd.t102 commonsourceibias.t67 CSoutput.t132 gnd.t31 sky130_fd_pr__nfet_01v8 ad=1.155 pd=7.33 as=1.155 ps=7.33 w=7 l=1
X140 vdd.t156 CSoutput.t172 output.t17 gnd.t184 sky130_fd_pr__nfet_01v8 ad=0.825 pd=5.33 as=0.825 ps=5.33 w=5 l=1
X141 output.t16 CSoutput.t173 vdd.t157 gnd.t183 sky130_fd_pr__nfet_01v8 ad=0.825 pd=5.33 as=0.825 ps=5.33 w=5 l=1
X142 a_n2140_13878.t14 a_n2318_13878.t26 a_n2318_13878.t27 vdd.t218 sky130_fd_pr__pfet_01v8 ad=1.485 pd=9.33 as=3.51 ps=18.78 w=9 l=0.5
X143 CSoutput.t72 a_n7636_8799.t67 vdd.t256 vdd.t129 sky130_fd_pr__pfet_01v8 ad=1.32 pd=8.33 as=1.32 ps=8.33 w=8 l=0.5
X144 vdd.t217 a_n2318_13878.t60 a_n2318_8322.t8 vdd.t216 sky130_fd_pr__pfet_01v8 ad=1.485 pd=9.33 as=3.51 ps=18.78 w=9 l=0.5
X145 a_n2318_13878.t35 a_n2318_13878.t34 a_n2140_13878.t13 vdd.t191 sky130_fd_pr__pfet_01v8 ad=1.485 pd=9.33 as=1.485 ps=9.33 w=9 l=0.5
X146 vdd.t176 a_n7636_8799.t68 CSoutput.t71 vdd.t175 sky130_fd_pr__pfet_01v8 ad=1.32 pd=8.33 as=1.32 ps=8.33 w=8 l=0.5
X147 a_n3827_n3924.t25 plus.t13 a_n7636_8799.t5 gnd.t7 sky130_fd_pr__nfet_01v8 ad=1.155 pd=7.33 as=1.155 ps=7.33 w=7 l=0.9
X148 a_n2318_13878.t44 minus.t9 a_n3827_n3924.t36 gnd.t190 sky130_fd_pr__nfet_01v8 ad=1.155 pd=7.33 as=1.155 ps=7.33 w=7 l=0.9
X149 gnd.t272 gnd.t270 gnd.t271 gnd.t235 sky130_fd_pr__nfet_01v8 ad=2.73 pd=14.78 as=0 ps=0 w=7 l=1
X150 plus.t3 gnd.t267 gnd.t269 gnd.t268 sky130_fd_pr__nfet_01v8 ad=0.165 pd=1.33 as=0.165 ps=1.33 w=1 l=0.5
X151 CSoutput.t160 commonsourceibias.t68 gnd.t101 gnd.t23 sky130_fd_pr__nfet_01v8 ad=1.155 pd=7.33 as=1.155 ps=7.33 w=7 l=1
X152 vdd.t6 CSoutput.t174 output.t15 gnd.t182 sky130_fd_pr__nfet_01v8 ad=0.825 pd=5.33 as=0.825 ps=5.33 w=5 l=1
X153 vdd.t177 a_n7636_8799.t69 CSoutput.t70 vdd.t17 sky130_fd_pr__pfet_01v8 ad=1.32 pd=8.33 as=1.32 ps=8.33 w=8 l=0.5
X154 gnd.t100 commonsourceibias.t69 CSoutput.t119 gnd.t45 sky130_fd_pr__nfet_01v8 ad=1.155 pd=7.33 as=1.155 ps=7.33 w=7 l=1
X155 gnd.t99 commonsourceibias.t70 CSoutput.t10 gnd.t47 sky130_fd_pr__nfet_01v8 ad=2.73 pd=14.78 as=1.155 ps=7.33 w=7 l=1
X156 gnd.t266 gnd.t264 minus.t2 gnd.t265 sky130_fd_pr__nfet_01v8 ad=0.165 pd=1.33 as=0.165 ps=1.33 w=1 l=0.5
X157 a_n3827_n3924.t4 diffpairibias.t24 gnd.t12 gnd.t11 sky130_fd_pr__nfet_01v8 ad=2.73 pd=14.78 as=2.73 ps=14.78 w=7 l=1
X158 a_n7636_8799.t11 plus.t14 a_n3827_n3924.t24 gnd.t136 sky130_fd_pr__nfet_01v8 ad=1.155 pd=7.33 as=1.155 ps=7.33 w=7 l=0.9
X159 a_n3827_n3924.t5 diffpairibias.t25 gnd.t14 gnd.t13 sky130_fd_pr__nfet_01v8 ad=2.73 pd=14.78 as=2.73 ps=14.78 w=7 l=1
X160 vdd.t3 a_n7636_8799.t70 CSoutput.t69 vdd.t2 sky130_fd_pr__pfet_01v8 ad=1.32 pd=8.33 as=1.32 ps=8.33 w=8 l=0.5
X161 vdd.t5 a_n7636_8799.t71 CSoutput.t68 vdd.t4 sky130_fd_pr__pfet_01v8 ad=3.12 pd=16.78 as=1.32 ps=8.33 w=8 l=0.5
X162 gnd.t263 gnd.t261 gnd.t262 gnd.t202 sky130_fd_pr__nfet_01v8 ad=2.73 pd=14.78 as=0 ps=0 w=7 l=1
X163 a_n7636_8799.t13 plus.t15 a_n3827_n3924.t23 gnd.t135 sky130_fd_pr__nfet_01v8 ad=1.155 pd=7.33 as=1.155 ps=7.33 w=7 l=0.9
X164 CSoutput.t67 a_n7636_8799.t72 vdd.t257 vdd.t150 sky130_fd_pr__pfet_01v8 ad=1.32 pd=8.33 as=1.32 ps=8.33 w=8 l=0.5
X165 CSoutput.t66 a_n7636_8799.t73 vdd.t258 vdd.t249 sky130_fd_pr__pfet_01v8 ad=1.32 pd=8.33 as=1.32 ps=8.33 w=8 l=0.5
X166 CSoutput.t65 a_n7636_8799.t74 vdd.t264 vdd.t108 sky130_fd_pr__pfet_01v8 ad=1.32 pd=8.33 as=1.32 ps=8.33 w=8 l=0.5
X167 CSoutput.t128 commonsourceibias.t71 gnd.t98 gnd.t82 sky130_fd_pr__nfet_01v8 ad=1.155 pd=7.33 as=1.155 ps=7.33 w=7 l=1
X168 vdd.t7 CSoutput.t175 output.t14 gnd.t181 sky130_fd_pr__nfet_01v8 ad=0.825 pd=5.33 as=0.825 ps=5.33 w=5 l=1
X169 a_n2140_13878.t23 a_n2318_13878.t61 vdd.t215 vdd.t214 sky130_fd_pr__pfet_01v8 ad=1.485 pd=9.33 as=1.485 ps=9.33 w=9 l=0.5
X170 gnd.t260 gnd.t258 gnd.t259 gnd.t206 sky130_fd_pr__nfet_01v8 ad=2.73 pd=14.78 as=0 ps=0 w=7 l=1
X171 gnd.t97 commonsourceibias.t72 CSoutput.t134 gnd.t17 sky130_fd_pr__nfet_01v8 ad=1.155 pd=7.33 as=1.155 ps=7.33 w=7 l=1
X172 output.t13 CSoutput.t176 vdd.t8 gnd.t180 sky130_fd_pr__nfet_01v8 ad=0.825 pd=5.33 as=0.825 ps=5.33 w=5 l=1
X173 diffpairibias.t11 diffpairibias.t10 gnd.t196 gnd.t195 sky130_fd_pr__nfet_01v8 ad=2.73 pd=14.78 as=2.73 ps=14.78 w=7 l=1
X174 vdd.t61 vdd.t59 vdd.t60 vdd.t49 sky130_fd_pr__pfet_01v8 ad=3.12 pd=16.78 as=0 ps=0 w=8 l=0.5
X175 vdd.t213 a_n2318_13878.t62 a_n2140_13878.t2 vdd.t212 sky130_fd_pr__pfet_01v8 ad=1.485 pd=9.33 as=1.485 ps=9.33 w=9 l=0.5
X176 a_n2318_13878.t46 minus.t10 a_n3827_n3924.t40 gnd.t194 sky130_fd_pr__nfet_01v8 ad=1.155 pd=7.33 as=1.155 ps=7.33 w=7 l=0.9
X177 vdd.t265 a_n7636_8799.t75 CSoutput.t64 vdd.t175 sky130_fd_pr__pfet_01v8 ad=1.32 pd=8.33 as=1.32 ps=8.33 w=8 l=0.5
X178 CSoutput.t63 a_n7636_8799.t76 vdd.t130 vdd.t129 sky130_fd_pr__pfet_01v8 ad=1.32 pd=8.33 as=1.32 ps=8.33 w=8 l=0.5
X179 a_n3827_n3924.t22 plus.t16 a_n7636_8799.t3 gnd.t10 sky130_fd_pr__nfet_01v8 ad=1.155 pd=7.33 as=1.155 ps=7.33 w=7 l=0.9
X180 gnd.t96 commonsourceibias.t73 CSoutput.t164 gnd.t67 sky130_fd_pr__nfet_01v8 ad=1.155 pd=7.33 as=1.155 ps=7.33 w=7 l=1
X181 CSoutput.t117 commonsourceibias.t74 gnd.t95 gnd.t29 sky130_fd_pr__nfet_01v8 ad=1.155 pd=7.33 as=2.73 ps=14.78 w=7 l=1
X182 vdd.t58 vdd.t56 vdd.t57 vdd.t49 sky130_fd_pr__pfet_01v8 ad=3.12 pd=16.78 as=0 ps=0 w=8 l=0.5
X183 output.t12 CSoutput.t177 vdd.t97 gnd.t179 sky130_fd_pr__nfet_01v8 ad=0.825 pd=5.33 as=0.825 ps=5.33 w=5 l=1
X184 a_n2140_13878.t12 a_n2318_13878.t14 a_n2318_13878.t15 vdd.t211 sky130_fd_pr__pfet_01v8 ad=1.485 pd=9.33 as=1.485 ps=9.33 w=9 l=0.5
X185 gnd.t94 commonsourceibias.t75 CSoutput.t142 gnd.t43 sky130_fd_pr__nfet_01v8 ad=1.155 pd=7.33 as=1.155 ps=7.33 w=7 l=1
X186 diffpairibias.t9 diffpairibias.t8 gnd.t9 gnd.t8 sky130_fd_pr__nfet_01v8 ad=2.73 pd=14.78 as=2.73 ps=14.78 w=7 l=1
X187 CSoutput.t178 a_n2318_8322.t2 sky130_fd_pr__cap_mim_m3_1 l=12 w=12
X188 vdd.t131 a_n7636_8799.t77 CSoutput.t62 vdd.t17 sky130_fd_pr__pfet_01v8 ad=1.32 pd=8.33 as=1.32 ps=8.33 w=8 l=0.5
X189 a_n2318_8322.t20 a_n2318_13878.t63 a_n7636_8799.t29 vdd.t184 sky130_fd_pr__pfet_01v8 ad=1.485 pd=9.33 as=1.485 ps=9.33 w=9 l=0.5
X190 gnd.t257 gnd.t255 gnd.t256 gnd.t202 sky130_fd_pr__nfet_01v8 ad=2.73 pd=14.78 as=0 ps=0 w=7 l=1
X191 a_n3827_n3924.t34 minus.t11 a_n2318_13878.t42 gnd.t193 sky130_fd_pr__nfet_01v8 ad=1.155 pd=7.33 as=1.155 ps=7.33 w=7 l=0.9
X192 commonsourceibias.t37 commonsourceibias.t36 gnd.t93 gnd.t82 sky130_fd_pr__nfet_01v8 ad=1.155 pd=7.33 as=1.155 ps=7.33 w=7 l=1
X193 vdd.t116 a_n7636_8799.t78 CSoutput.t61 vdd.t9 sky130_fd_pr__pfet_01v8 ad=1.32 pd=8.33 as=1.32 ps=8.33 w=8 l=0.5
X194 CSoutput.t60 a_n7636_8799.t79 vdd.t118 vdd.t117 sky130_fd_pr__pfet_01v8 ad=1.32 pd=8.33 as=1.32 ps=8.33 w=8 l=0.5
X195 diffpairibias.t7 diffpairibias.t6 gnd.t140 gnd.t139 sky130_fd_pr__nfet_01v8 ad=2.73 pd=14.78 as=2.73 ps=14.78 w=7 l=1
X196 vdd.t172 a_n7636_8799.t80 CSoutput.t59 vdd.t2 sky130_fd_pr__pfet_01v8 ad=1.32 pd=8.33 as=1.32 ps=8.33 w=8 l=0.5
X197 vdd.t173 a_n7636_8799.t81 CSoutput.t58 vdd.t4 sky130_fd_pr__pfet_01v8 ad=3.12 pd=16.78 as=1.32 ps=8.33 w=8 l=0.5
X198 vdd.t210 a_n2318_13878.t64 a_n2318_8322.t7 vdd.t209 sky130_fd_pr__pfet_01v8 ad=1.485 pd=9.33 as=3.51 ps=18.78 w=9 l=0.5
X199 gnd.t254 gnd.t252 minus.t1 gnd.t253 sky130_fd_pr__nfet_01v8 ad=0.39 pd=2.78 as=0.165 ps=1.33 w=1 l=0.5
X200 plus.t2 gnd.t249 gnd.t251 gnd.t250 sky130_fd_pr__nfet_01v8 ad=0.165 pd=1.33 as=0.165 ps=1.33 w=1 l=0.5
X201 CSoutput.t179 a_n2318_8322.t2 sky130_fd_pr__cap_mim_m3_1 l=12 w=12
X202 output.t1 outputibias.t10 gnd.t157 gnd.t156 sky130_fd_pr__nfet_01v8 ad=2.34 pd=12.78 as=2.34 ps=12.78 w=6 l=2
X203 CSoutput.t108 commonsourceibias.t76 gnd.t92 gnd.t25 sky130_fd_pr__nfet_01v8 ad=1.155 pd=7.33 as=1.155 ps=7.33 w=7 l=1
X204 gnd.t248 gnd.t245 gnd.t247 gnd.t246 sky130_fd_pr__nfet_01v8 ad=1.95 pd=10.78 as=0 ps=0 w=5 l=1
X205 gnd.t244 gnd.t242 gnd.t243 gnd.t231 sky130_fd_pr__nfet_01v8 ad=2.73 pd=14.78 as=0 ps=0 w=7 l=1
X206 commonsourceibias.t35 commonsourceibias.t34 gnd.t91 gnd.t61 sky130_fd_pr__nfet_01v8 ad=1.155 pd=7.33 as=1.155 ps=7.33 w=7 l=1
X207 a_n2140_13878.t0 a_n2318_13878.t65 vdd.t208 vdd.t207 sky130_fd_pr__pfet_01v8 ad=3.51 pd=18.78 as=1.485 ps=9.33 w=9 l=0.5
X208 gnd.t241 gnd.t238 gnd.t240 gnd.t239 sky130_fd_pr__nfet_01v8 ad=2.73 pd=14.78 as=0 ps=0 w=7 l=1
X209 vdd.t247 a_n7636_8799.t82 CSoutput.t57 vdd.t141 sky130_fd_pr__pfet_01v8 ad=1.32 pd=8.33 as=1.32 ps=8.33 w=8 l=0.5
X210 CSoutput.t161 commonsourceibias.t77 gnd.t90 gnd.t25 sky130_fd_pr__nfet_01v8 ad=1.155 pd=7.33 as=1.155 ps=7.33 w=7 l=1
X211 vdd.t112 CSoutput.t180 output.t11 gnd.t178 sky130_fd_pr__nfet_01v8 ad=0.825 pd=5.33 as=0.825 ps=5.33 w=5 l=1
X212 output.t0 outputibias.t11 gnd.t160 gnd.t159 sky130_fd_pr__nfet_01v8 ad=2.34 pd=12.78 as=2.34 ps=12.78 w=6 l=2
X213 gnd.t89 commonsourceibias.t78 CSoutput.t1 gnd.t72 sky130_fd_pr__nfet_01v8 ad=1.155 pd=7.33 as=1.155 ps=7.33 w=7 l=1
X214 CSoutput.t56 a_n7636_8799.t83 vdd.t248 vdd.t11 sky130_fd_pr__pfet_01v8 ad=1.32 pd=8.33 as=1.32 ps=8.33 w=8 l=0.5
X215 CSoutput.t55 a_n7636_8799.t84 vdd.t250 vdd.t249 sky130_fd_pr__pfet_01v8 ad=1.32 pd=8.33 as=1.32 ps=8.33 w=8 l=0.5
X216 CSoutput.t9 commonsourceibias.t79 gnd.t88 gnd.t33 sky130_fd_pr__nfet_01v8 ad=1.155 pd=7.33 as=1.155 ps=7.33 w=7 l=1
X217 gnd.t87 commonsourceibias.t40 commonsourceibias.t41 gnd.t35 sky130_fd_pr__nfet_01v8 ad=2.73 pd=14.78 as=1.155 ps=7.33 w=7 l=1
X218 gnd.t86 commonsourceibias.t80 CSoutput.t162 gnd.t47 sky130_fd_pr__nfet_01v8 ad=2.73 pd=14.78 as=1.155 ps=7.33 w=7 l=1
X219 vdd.t55 vdd.t52 vdd.t54 vdd.t53 sky130_fd_pr__pfet_01v8 ad=3.12 pd=16.78 as=0 ps=0 w=8 l=0.5
X220 gnd.t237 gnd.t234 gnd.t236 gnd.t235 sky130_fd_pr__nfet_01v8 ad=2.73 pd=14.78 as=0 ps=0 w=7 l=1
X221 CSoutput.t166 commonsourceibias.t81 gnd.t85 gnd.t70 sky130_fd_pr__nfet_01v8 ad=1.155 pd=7.33 as=1.155 ps=7.33 w=7 l=1
X222 gnd.t84 commonsourceibias.t82 CSoutput.t167 gnd.t31 sky130_fd_pr__nfet_01v8 ad=1.155 pd=7.33 as=1.155 ps=7.33 w=7 l=1
X223 CSoutput.t143 commonsourceibias.t83 gnd.t83 gnd.t82 sky130_fd_pr__nfet_01v8 ad=1.155 pd=7.33 as=1.155 ps=7.33 w=7 l=1
X224 a_n2318_8322.t19 a_n2318_13878.t66 a_n7636_8799.t23 vdd.t206 sky130_fd_pr__pfet_01v8 ad=1.485 pd=9.33 as=1.485 ps=9.33 w=9 l=0.5
X225 vdd.t205 a_n2318_13878.t67 a_n2318_8322.t6 vdd.t204 sky130_fd_pr__pfet_01v8 ad=1.485 pd=9.33 as=1.485 ps=9.33 w=9 l=0.5
X226 vdd.t51 vdd.t48 vdd.t50 vdd.t49 sky130_fd_pr__pfet_01v8 ad=3.12 pd=16.78 as=0 ps=0 w=8 l=0.5
X227 CSoutput.t54 a_n7636_8799.t85 vdd.t251 vdd.t249 sky130_fd_pr__pfet_01v8 ad=1.32 pd=8.33 as=1.32 ps=8.33 w=8 l=0.5
X228 commonsourceibias.t39 commonsourceibias.t38 gnd.t81 gnd.t23 sky130_fd_pr__nfet_01v8 ad=1.155 pd=7.33 as=1.155 ps=7.33 w=7 l=1
X229 a_n3827_n3924.t8 diffpairibias.t26 gnd.t138 gnd.t137 sky130_fd_pr__nfet_01v8 ad=2.73 pd=14.78 as=2.73 ps=14.78 w=7 l=1
X230 CSoutput.t53 a_n7636_8799.t86 vdd.t144 vdd.t15 sky130_fd_pr__pfet_01v8 ad=1.32 pd=8.33 as=1.32 ps=8.33 w=8 l=0.5
X231 vdd.t145 a_n7636_8799.t87 CSoutput.t52 vdd.t106 sky130_fd_pr__pfet_01v8 ad=1.32 pd=8.33 as=1.32 ps=8.33 w=8 l=0.5
X232 CSoutput.t130 commonsourceibias.t84 gnd.t80 gnd.t41 sky130_fd_pr__nfet_01v8 ad=1.155 pd=7.33 as=1.155 ps=7.33 w=7 l=1
X233 gnd.t79 commonsourceibias.t85 CSoutput.t5 gnd.t19 sky130_fd_pr__nfet_01v8 ad=1.155 pd=7.33 as=1.155 ps=7.33 w=7 l=1
X234 a_n7636_8799.t1 plus.t17 a_n3827_n3924.t21 gnd.t6 sky130_fd_pr__nfet_01v8 ad=1.155 pd=7.33 as=1.155 ps=7.33 w=7 l=0.9
X235 a_n2318_13878.t9 minus.t12 a_n3827_n3924.t17 gnd.t189 sky130_fd_pr__nfet_01v8 ad=1.155 pd=7.33 as=1.155 ps=7.33 w=7 l=0.9
X236 vdd.t170 a_n7636_8799.t88 CSoutput.t51 vdd.t169 sky130_fd_pr__pfet_01v8 ad=1.32 pd=8.33 as=1.32 ps=8.33 w=8 l=0.5
X237 vdd.t171 a_n7636_8799.t89 CSoutput.t50 vdd.t162 sky130_fd_pr__pfet_01v8 ad=1.32 pd=8.33 as=1.32 ps=8.33 w=8 l=0.5
X238 a_n3827_n3924.t0 minus.t13 a_n2318_13878.t0 gnd.t0 sky130_fd_pr__nfet_01v8 ad=2.73 pd=14.78 as=1.155 ps=7.33 w=7 l=0.9
X239 gnd.t78 commonsourceibias.t86 CSoutput.t111 gnd.t59 sky130_fd_pr__nfet_01v8 ad=1.155 pd=7.33 as=1.155 ps=7.33 w=7 l=1
X240 CSoutput.t147 commonsourceibias.t87 gnd.t77 gnd.t41 sky130_fd_pr__nfet_01v8 ad=1.155 pd=7.33 as=1.155 ps=7.33 w=7 l=1
X241 vdd.t47 vdd.t45 vdd.t46 vdd.t28 sky130_fd_pr__pfet_01v8 ad=3.12 pd=16.78 as=0 ps=0 w=8 l=0.5
X242 CSoutput.t125 commonsourceibias.t88 gnd.t76 gnd.t15 sky130_fd_pr__nfet_01v8 ad=1.155 pd=7.33 as=1.155 ps=7.33 w=7 l=1
X243 gnd.t75 commonsourceibias.t89 CSoutput.t122 gnd.t35 sky130_fd_pr__nfet_01v8 ad=2.73 pd=14.78 as=1.155 ps=7.33 w=7 l=1
X244 vdd.t44 vdd.t41 vdd.t43 vdd.t42 sky130_fd_pr__pfet_01v8 ad=3.51 pd=18.78 as=0 ps=0 w=9 l=0.5
X245 vdd.t259 a_n7636_8799.t90 CSoutput.t49 vdd.t101 sky130_fd_pr__pfet_01v8 ad=3.12 pd=16.78 as=1.32 ps=8.33 w=8 l=0.5
X246 a_n3827_n3924.t13 minus.t14 a_n2318_13878.t7 gnd.t1 sky130_fd_pr__nfet_01v8 ad=1.155 pd=7.33 as=1.155 ps=7.33 w=7 l=0.9
X247 gnd.t233 gnd.t230 gnd.t232 gnd.t231 sky130_fd_pr__nfet_01v8 ad=2.73 pd=14.78 as=0 ps=0 w=7 l=1
X248 CSoutput.t48 a_n7636_8799.t91 vdd.t260 vdd.t117 sky130_fd_pr__pfet_01v8 ad=1.32 pd=8.33 as=1.32 ps=8.33 w=8 l=0.5
X249 CSoutput.t47 a_n7636_8799.t92 vdd.t124 vdd.t123 sky130_fd_pr__pfet_01v8 ad=1.32 pd=8.33 as=3.12 ps=16.78 w=8 l=0.5
X250 a_n2140_13878.t11 a_n2318_13878.t24 a_n2318_13878.t25 vdd.t198 sky130_fd_pr__pfet_01v8 ad=1.485 pd=9.33 as=1.485 ps=9.33 w=9 l=0.5
X251 a_n3827_n3924.t37 minus.t15 a_n2318_13878.t45 gnd.t317 sky130_fd_pr__nfet_01v8 ad=2.73 pd=14.78 as=1.155 ps=7.33 w=7 l=0.9