* NGSPICE file created from opamp.ext - technology: sky130A

.subckt opamp output vdd plus minus commonsourceibias outputibias diffpairibias gnd CSoutput
Cload output gnd 0.0p
X0 gnd.t409 commonsourceibias.t30 commonsourceibias.t31 gnd.t310 sky130_fd_pr__nfet_01v8 ad=1.155 pd=7.33 as=1.155 ps=7.33 w=7 l=1
X1 gnd.t401 commonsourceibias.t80 CSoutput.t201 gnd.t236 sky130_fd_pr__nfet_01v8 ad=1.155 pd=7.33 as=1.155 ps=7.33 w=7 l=1
X2 gnd.t406 commonsourceibias.t81 CSoutput.t200 gnd.t265 sky130_fd_pr__nfet_01v8 ad=1.155 pd=7.33 as=1.155 ps=7.33 w=7 l=1
X3 CSoutput.t199 commonsourceibias.t82 gnd.t405 gnd.t274 sky130_fd_pr__nfet_01v8 ad=1.155 pd=7.33 as=1.155 ps=7.33 w=7 l=1
X4 commonsourceibias.t29 commonsourceibias.t28 gnd.t408 gnd.t243 sky130_fd_pr__nfet_01v8 ad=1.155 pd=7.33 as=1.155 ps=7.33 w=7 l=1
X5 a_n1986_8322.t8 a_n2848_n452.t48 vdd.t255 vdd.t254 sky130_fd_pr__pfet_01v8_lvt ad=1.485 pd=9.33 as=1.485 ps=9.33 w=9 l=0.5
X6 gnd.t407 commonsourceibias.t83 CSoutput.t198 gnd.t223 sky130_fd_pr__nfet_01v8 ad=1.155 pd=7.33 as=1.155 ps=7.33 w=7 l=1
X7 a_n1808_13878.t19 a_n2848_n452.t42 a_n2848_n452.t43 vdd.t251 sky130_fd_pr__pfet_01v8_lvt ad=1.485 pd=9.33 as=3.51 ps=18.78 w=9 l=0.5
X8 vdd.t189 a_n7636_8799.t36 CSoutput.t62 vdd.t168 sky130_fd_pr__pfet_01v8_lvt ad=1.32 pd=8.33 as=1.32 ps=8.33 w=8 l=0.5
X9 a_n7636_8799.t32 plus.t5 a_n3827_n3924.t31 gnd.t173 sky130_fd_pr__nfet_01v8 ad=1.155 pd=7.33 as=1.155 ps=7.33 w=7 l=0.9
X10 gnd.t404 commonsourceibias.t26 commonsourceibias.t27 gnd.t233 sky130_fd_pr__nfet_01v8 ad=1.155 pd=7.33 as=1.155 ps=7.33 w=7 l=1
X11 a_n3827_n3924.t43 diffpairibias.t20 gnd.t170 gnd.t169 sky130_fd_pr__nfet_01v8 ad=2.73 pd=14.78 as=2.73 ps=14.78 w=7 l=1
X12 CSoutput.t197 commonsourceibias.t84 gnd.t402 gnd.t353 sky130_fd_pr__nfet_01v8 ad=1.155 pd=7.33 as=1.155 ps=7.33 w=7 l=1
X13 a_n3827_n3924.t30 plus.t6 a_n7636_8799.t31 gnd.t181 sky130_fd_pr__nfet_01v8 ad=1.155 pd=7.33 as=1.155 ps=7.33 w=7 l=0.9
X14 a_n2848_n452.t39 a_n2848_n452.t38 a_n1808_13878.t18 vdd.t233 sky130_fd_pr__pfet_01v8_lvt ad=1.485 pd=9.33 as=1.485 ps=9.33 w=9 l=0.5
X15 vdd.t118 vdd.t116 vdd.t117 vdd.t94 sky130_fd_pr__pfet_01v8_lvt ad=3.51 pd=18.78 as=0 ps=0 w=9 l=0.5
X16 CSoutput.t63 a_n7636_8799.t37 vdd.t190 vdd.t186 sky130_fd_pr__pfet_01v8_lvt ad=1.32 pd=8.33 as=1.32 ps=8.33 w=8 l=0.5
X17 a_n1808_13878.t17 a_n2848_n452.t40 a_n2848_n452.t41 vdd.t241 sky130_fd_pr__pfet_01v8_lvt ad=1.485 pd=9.33 as=1.485 ps=9.33 w=9 l=0.5
X18 a_n1808_13878.t7 a_n2848_n452.t49 vdd.t253 vdd.t252 sky130_fd_pr__pfet_01v8_lvt ad=1.485 pd=9.33 as=1.485 ps=9.33 w=9 l=0.5
X19 gnd.t403 commonsourceibias.t24 commonsourceibias.t25 gnd.t210 sky130_fd_pr__nfet_01v8 ad=1.155 pd=7.33 as=1.155 ps=7.33 w=7 l=1
X20 vdd.t208 a_n7636_8799.t38 CSoutput.t78 vdd.t37 sky130_fd_pr__pfet_01v8_lvt ad=1.32 pd=8.33 as=1.32 ps=8.33 w=8 l=0.5
X21 CSoutput.t79 a_n7636_8799.t39 vdd.t209 vdd.t194 sky130_fd_pr__pfet_01v8_lvt ad=1.32 pd=8.33 as=1.32 ps=8.33 w=8 l=0.5
X22 commonsourceibias.t23 commonsourceibias.t22 gnd.t400 gnd.t261 sky130_fd_pr__nfet_01v8 ad=1.155 pd=7.33 as=1.155 ps=7.33 w=7 l=1
X23 gnd.t399 commonsourceibias.t85 CSoutput.t196 gnd.t293 sky130_fd_pr__nfet_01v8 ad=1.155 pd=7.33 as=1.155 ps=7.33 w=7 l=1
X24 CSoutput.t12 a_n7636_8799.t40 vdd.t24 vdd.t23 sky130_fd_pr__pfet_01v8_lvt ad=1.32 pd=8.33 as=1.32 ps=8.33 w=8 l=0.5
X25 gnd.t121 gnd.t119 gnd.t120 gnd.t48 sky130_fd_pr__nfet_01v8 ad=2.73 pd=14.78 as=0 ps=0 w=7 l=1
X26 vdd.t115 vdd.t113 vdd.t114 vdd.t66 sky130_fd_pr__pfet_01v8_lvt ad=3.12 pd=16.78 as=0 ps=0 w=8 l=0.5
X27 a_n2848_n452.t13 minus.t5 a_n3827_n3924.t42 gnd.t149 sky130_fd_pr__nfet_01v8 ad=1.155 pd=7.33 as=1.155 ps=7.33 w=7 l=0.9
X28 a_n1986_8322.t10 a_n2848_n452.t50 a_n7636_8799.t29 vdd.t250 sky130_fd_pr__pfet_01v8_lvt ad=1.485 pd=9.33 as=1.485 ps=9.33 w=9 l=0.5
X29 a_n7636_8799.t4 plus.t7 a_n3827_n3924.t29 gnd.t138 sky130_fd_pr__nfet_01v8 ad=1.155 pd=7.33 as=1.155 ps=7.33 w=7 l=0.9
X30 CSoutput.t195 commonsourceibias.t86 gnd.t398 gnd.t279 sky130_fd_pr__nfet_01v8 ad=1.155 pd=7.33 as=1.155 ps=7.33 w=7 l=1
X31 a_n2848_n452.t46 minus.t6 a_n3827_n3924.t56 gnd.t157 sky130_fd_pr__nfet_01v8 ad=1.155 pd=7.33 as=1.155 ps=7.33 w=7 l=0.9
X32 plus.t4 gnd.t116 gnd.t118 gnd.t117 sky130_fd_pr__nfet_01v8 ad=0.165 pd=1.33 as=0.165 ps=1.33 w=1 l=0.5
X33 CSoutput.t13 a_n7636_8799.t41 vdd.t26 vdd.t25 sky130_fd_pr__pfet_01v8_lvt ad=1.32 pd=8.33 as=1.32 ps=8.33 w=8 l=0.5
X34 gnd.t115 gnd.t112 gnd.t114 gnd.t113 sky130_fd_pr__nfet_01v8 ad=2.34 pd=12.78 as=0 ps=0 w=6 l=2
X35 CSoutput.t194 commonsourceibias.t87 gnd.t336 gnd.t212 sky130_fd_pr__nfet_01v8 ad=1.155 pd=7.33 as=1.155 ps=7.33 w=7 l=1
X36 vdd.t1 a_n7636_8799.t42 CSoutput.t0 vdd.t0 sky130_fd_pr__pfet_01v8_lvt ad=1.32 pd=8.33 as=1.32 ps=8.33 w=8 l=0.5
X37 commonsourceibias.t21 commonsourceibias.t20 gnd.t397 gnd.t308 sky130_fd_pr__nfet_01v8 ad=1.155 pd=7.33 as=1.155 ps=7.33 w=7 l=1
X38 vdd.t155 CSoutput.t240 output.t18 gnd.t193 sky130_fd_pr__nfet_01v8_lvt ad=0.825 pd=5.33 as=0.825 ps=5.33 w=5 l=1
X39 gnd.t396 commonsourceibias.t88 CSoutput.t193 gnd.t227 sky130_fd_pr__nfet_01v8 ad=1.155 pd=7.33 as=1.155 ps=7.33 w=7 l=1
X40 gnd.t111 gnd.t109 gnd.t110 gnd.t38 sky130_fd_pr__nfet_01v8 ad=2.73 pd=14.78 as=0 ps=0 w=7 l=1
X41 CSoutput.t192 commonsourceibias.t89 gnd.t391 gnd.t229 sky130_fd_pr__nfet_01v8 ad=1.155 pd=7.33 as=1.155 ps=7.33 w=7 l=1
X42 CSoutput.t191 commonsourceibias.t90 gnd.t395 gnd.t353 sky130_fd_pr__nfet_01v8 ad=1.155 pd=7.33 as=1.155 ps=7.33 w=7 l=1
X43 vdd.t3 a_n7636_8799.t43 CSoutput.t1 vdd.t2 sky130_fd_pr__pfet_01v8_lvt ad=1.32 pd=8.33 as=1.32 ps=8.33 w=8 l=0.5
X44 gnd.t394 commonsourceibias.t18 commonsourceibias.t19 gnd.t293 sky130_fd_pr__nfet_01v8 ad=1.155 pd=7.33 as=1.155 ps=7.33 w=7 l=1
X45 vdd.t278 a_n7636_8799.t44 CSoutput.t222 vdd.t41 sky130_fd_pr__pfet_01v8_lvt ad=1.32 pd=8.33 as=1.32 ps=8.33 w=8 l=0.5
X46 outputibias.t7 outputibias.t6 gnd.t413 gnd.t412 sky130_fd_pr__nfet_01v8 ad=2.34 pd=12.78 as=2.34 ps=12.78 w=6 l=2
X47 gnd.t393 commonsourceibias.t68 commonsourceibias.t69 gnd.t214 sky130_fd_pr__nfet_01v8 ad=2.73 pd=14.78 as=1.155 ps=7.33 w=7 l=1
X48 CSoutput.t190 commonsourceibias.t91 gnd.t392 gnd.t313 sky130_fd_pr__nfet_01v8 ad=1.155 pd=7.33 as=1.155 ps=7.33 w=7 l=1
X49 CSoutput.t223 a_n7636_8799.t45 vdd.t279 vdd.t206 sky130_fd_pr__pfet_01v8_lvt ad=1.32 pd=8.33 as=1.32 ps=8.33 w=8 l=0.5
X50 a_n3827_n3924.t28 plus.t8 a_n7636_8799.t30 gnd.t152 sky130_fd_pr__nfet_01v8 ad=1.155 pd=7.33 as=1.155 ps=7.33 w=7 l=0.9
X51 a_n7636_8799.t28 a_n2848_n452.t51 a_n1986_8322.t9 vdd.t251 sky130_fd_pr__pfet_01v8_lvt ad=1.485 pd=9.33 as=3.51 ps=18.78 w=9 l=0.5
X52 vdd.t294 a_n7636_8799.t46 CSoutput.t238 vdd.t273 sky130_fd_pr__pfet_01v8_lvt ad=1.32 pd=8.33 as=1.32 ps=8.33 w=8 l=0.5
X53 a_n3827_n3924.t54 diffpairibias.t21 gnd.t187 gnd.t186 sky130_fd_pr__nfet_01v8 ad=2.73 pd=14.78 as=2.73 ps=14.78 w=7 l=1
X54 CSoutput.t239 a_n7636_8799.t47 vdd.t295 vdd.t6 sky130_fd_pr__pfet_01v8_lvt ad=1.32 pd=8.33 as=3.12 ps=16.78 w=8 l=0.5
X55 commonsourceibias.t67 commonsourceibias.t66 gnd.t390 gnd.t216 sky130_fd_pr__nfet_01v8 ad=1.155 pd=7.33 as=1.155 ps=7.33 w=7 l=1
X56 a_n3827_n3924.t39 minus.t7 a_n2848_n452.t10 gnd.t150 sky130_fd_pr__nfet_01v8 ad=1.155 pd=7.33 as=1.155 ps=7.33 w=7 l=0.9
X57 CSoutput.t189 commonsourceibias.t92 gnd.t337 gnd.t313 sky130_fd_pr__nfet_01v8 ad=1.155 pd=7.33 as=1.155 ps=7.33 w=7 l=1
X58 vdd.t112 vdd.t110 vdd.t111 vdd.t44 sky130_fd_pr__pfet_01v8_lvt ad=3.12 pd=16.78 as=0 ps=0 w=8 l=0.5
X59 CSoutput.t60 a_n7636_8799.t48 vdd.t187 vdd.t186 sky130_fd_pr__pfet_01v8_lvt ad=1.32 pd=8.33 as=1.32 ps=8.33 w=8 l=0.5
X60 gnd.t389 commonsourceibias.t64 commonsourceibias.t65 gnd.t291 sky130_fd_pr__nfet_01v8 ad=1.155 pd=7.33 as=1.155 ps=7.33 w=7 l=1
X61 CSoutput.t188 commonsourceibias.t93 gnd.t388 gnd.t231 sky130_fd_pr__nfet_01v8 ad=1.155 pd=7.33 as=2.73 ps=14.78 w=7 l=1
X62 CSoutput.t61 a_n7636_8799.t49 vdd.t188 vdd.t27 sky130_fd_pr__pfet_01v8_lvt ad=1.32 pd=8.33 as=1.32 ps=8.33 w=8 l=0.5
X63 gnd.t108 gnd.t106 gnd.t107 gnd.t34 sky130_fd_pr__nfet_01v8 ad=2.73 pd=14.78 as=0 ps=0 w=7 l=0.9
X64 CSoutput.t220 a_n7636_8799.t50 vdd.t276 vdd.t23 sky130_fd_pr__pfet_01v8_lvt ad=1.32 pd=8.33 as=1.32 ps=8.33 w=8 l=0.5
X65 a_n3827_n3924.t27 plus.t9 a_n7636_8799.t35 gnd.t174 sky130_fd_pr__nfet_01v8 ad=1.155 pd=7.33 as=1.155 ps=7.33 w=7 l=0.9
X66 CSoutput.t187 commonsourceibias.t94 gnd.t387 gnd.t245 sky130_fd_pr__nfet_01v8 ad=1.155 pd=7.33 as=2.73 ps=14.78 w=7 l=1
X67 gnd.t386 commonsourceibias.t95 CSoutput.t186 gnd.t265 sky130_fd_pr__nfet_01v8 ad=1.155 pd=7.33 as=1.155 ps=7.33 w=7 l=1
X68 diffpairibias.t19 diffpairibias.t18 gnd.t143 gnd.t142 sky130_fd_pr__nfet_01v8 ad=2.73 pd=14.78 as=2.73 ps=14.78 w=7 l=1
X69 CSoutput.t185 commonsourceibias.t96 gnd.t385 gnd.t272 sky130_fd_pr__nfet_01v8 ad=1.155 pd=7.33 as=1.155 ps=7.33 w=7 l=1
X70 a_n3827_n3924.t26 plus.t10 a_n7636_8799.t1 gnd.t122 sky130_fd_pr__nfet_01v8 ad=1.155 pd=7.33 as=1.155 ps=7.33 w=7 l=0.9
X71 a_n1808_13878.t16 a_n2848_n452.t26 a_n2848_n452.t27 vdd.t215 sky130_fd_pr__pfet_01v8_lvt ad=1.485 pd=9.33 as=3.51 ps=18.78 w=9 l=0.5
X72 vdd.t109 vdd.t107 vdd.t108 vdd.t66 sky130_fd_pr__pfet_01v8_lvt ad=3.12 pd=16.78 as=0 ps=0 w=8 l=0.5
X73 vdd.t277 a_n7636_8799.t51 CSoutput.t221 vdd.t273 sky130_fd_pr__pfet_01v8_lvt ad=1.32 pd=8.33 as=1.32 ps=8.33 w=8 l=0.5
X74 a_n3827_n3924.t34 minus.t8 a_n2848_n452.t6 gnd.t1 sky130_fd_pr__nfet_01v8 ad=2.73 pd=14.78 as=1.155 ps=7.33 w=7 l=0.9
X75 CSoutput.t236 a_n7636_8799.t52 vdd.t292 vdd.t124 sky130_fd_pr__pfet_01v8_lvt ad=1.32 pd=8.33 as=1.32 ps=8.33 w=8 l=0.5
X76 a_n2848_n452.t45 a_n2848_n452.t44 a_n1808_13878.t15 vdd.t225 sky130_fd_pr__pfet_01v8_lvt ad=1.485 pd=9.33 as=1.485 ps=9.33 w=9 l=0.5
X77 vdd.t152 CSoutput.t241 output.t17 gnd.t190 sky130_fd_pr__nfet_01v8_lvt ad=0.825 pd=5.33 as=0.825 ps=5.33 w=5 l=1
X78 CSoutput.t184 commonsourceibias.t97 gnd.t384 gnd.t323 sky130_fd_pr__nfet_01v8 ad=1.155 pd=7.33 as=1.155 ps=7.33 w=7 l=1
X79 CSoutput.t183 commonsourceibias.t98 gnd.t383 gnd.t296 sky130_fd_pr__nfet_01v8 ad=1.155 pd=7.33 as=1.155 ps=7.33 w=7 l=1
X80 CSoutput.t237 a_n7636_8799.t53 vdd.t293 vdd.t25 sky130_fd_pr__pfet_01v8_lvt ad=1.32 pd=8.33 as=1.32 ps=8.33 w=8 l=0.5
X81 vdd.t106 vdd.t104 vdd.t105 vdd.t79 sky130_fd_pr__pfet_01v8_lvt ad=3.51 pd=18.78 as=0 ps=0 w=9 l=0.5
X82 commonsourceibias.t63 commonsourceibias.t62 gnd.t382 gnd.t274 sky130_fd_pr__nfet_01v8 ad=1.155 pd=7.33 as=1.155 ps=7.33 w=7 l=1
X83 gnd.t105 gnd.t103 gnd.t104 gnd.t13 sky130_fd_pr__nfet_01v8 ad=2.73 pd=14.78 as=0 ps=0 w=7 l=1
X84 vdd.t184 a_n7636_8799.t54 CSoutput.t58 vdd.t0 sky130_fd_pr__pfet_01v8_lvt ad=1.32 pd=8.33 as=1.32 ps=8.33 w=8 l=0.5
X85 CSoutput.t182 commonsourceibias.t99 gnd.t381 gnd.t353 sky130_fd_pr__nfet_01v8 ad=1.155 pd=7.33 as=1.155 ps=7.33 w=7 l=1
X86 gnd.t102 gnd.t99 gnd.t101 gnd.t100 sky130_fd_pr__nfet_01v8_lvt ad=1.95 pd=10.78 as=0 ps=0 w=5 l=1
X87 diffpairibias.t17 diffpairibias.t16 gnd.t168 gnd.t167 sky130_fd_pr__nfet_01v8 ad=2.73 pd=14.78 as=2.73 ps=14.78 w=7 l=1
X88 gnd.t98 gnd.t96 gnd.t97 gnd.t13 sky130_fd_pr__nfet_01v8 ad=2.73 pd=14.78 as=0 ps=0 w=7 l=1
X89 CSoutput.t59 a_n7636_8799.t55 vdd.t185 vdd.t35 sky130_fd_pr__pfet_01v8_lvt ad=1.32 pd=8.33 as=1.32 ps=8.33 w=8 l=0.5
X90 CSoutput.t181 commonsourceibias.t100 gnd.t380 gnd.t245 sky130_fd_pr__nfet_01v8 ad=1.155 pd=7.33 as=2.73 ps=14.78 w=7 l=1
X91 vdd.t148 a_n7636_8799.t56 CSoutput.t42 vdd.t41 sky130_fd_pr__pfet_01v8_lvt ad=1.32 pd=8.33 as=1.32 ps=8.33 w=8 l=0.5
X92 CSoutput.t180 commonsourceibias.t101 gnd.t379 gnd.t296 sky130_fd_pr__nfet_01v8 ad=1.155 pd=7.33 as=1.155 ps=7.33 w=7 l=1
X93 vdd.t150 a_n7636_8799.t57 CSoutput.t43 vdd.t149 sky130_fd_pr__pfet_01v8_lvt ad=1.32 pd=8.33 as=1.32 ps=8.33 w=8 l=0.5
X94 gnd.t95 gnd.t93 gnd.t94 gnd.t52 sky130_fd_pr__nfet_01v8 ad=2.73 pd=14.78 as=0 ps=0 w=7 l=1
X95 vdd.t274 a_n7636_8799.t58 CSoutput.t218 vdd.t273 sky130_fd_pr__pfet_01v8_lvt ad=1.32 pd=8.33 as=1.32 ps=8.33 w=8 l=0.5
X96 vdd.t275 a_n7636_8799.t59 CSoutput.t219 vdd.t12 sky130_fd_pr__pfet_01v8_lvt ad=1.32 pd=8.33 as=1.32 ps=8.33 w=8 l=0.5
X97 CSoutput.t10 a_n7636_8799.t60 vdd.t20 vdd.t6 sky130_fd_pr__pfet_01v8_lvt ad=1.32 pd=8.33 as=3.12 ps=16.78 w=8 l=0.5
X98 CSoutput.t11 a_n7636_8799.t61 vdd.t22 vdd.t21 sky130_fd_pr__pfet_01v8_lvt ad=1.32 pd=8.33 as=1.32 ps=8.33 w=8 l=0.5
X99 a_n3827_n3924.t4 minus.t9 a_n2848_n452.t2 gnd.t132 sky130_fd_pr__nfet_01v8 ad=1.155 pd=7.33 as=1.155 ps=7.33 w=7 l=0.9
X100 a_n3827_n3924.t25 plus.t11 a_n7636_8799.t13 gnd.t151 sky130_fd_pr__nfet_01v8 ad=2.73 pd=14.78 as=1.155 ps=7.33 w=7 l=0.9
X101 gnd.t378 commonsourceibias.t102 CSoutput.t179 gnd.t267 sky130_fd_pr__nfet_01v8 ad=1.155 pd=7.33 as=1.155 ps=7.33 w=7 l=1
X102 CSoutput.t178 commonsourceibias.t103 gnd.t377 gnd.t289 sky130_fd_pr__nfet_01v8 ad=1.155 pd=7.33 as=1.155 ps=7.33 w=7 l=1
X103 a_n7636_8799.t16 plus.t12 a_n3827_n3924.t24 gnd.t158 sky130_fd_pr__nfet_01v8 ad=1.155 pd=7.33 as=1.155 ps=7.33 w=7 l=0.9
X104 gnd.t376 commonsourceibias.t104 CSoutput.t177 gnd.t247 sky130_fd_pr__nfet_01v8 ad=2.73 pd=14.78 as=1.155 ps=7.33 w=7 l=1
X105 vdd.t182 a_n7636_8799.t62 CSoutput.t56 vdd.t4 sky130_fd_pr__pfet_01v8_lvt ad=1.32 pd=8.33 as=1.32 ps=8.33 w=8 l=0.5
X106 gnd.t92 gnd.t90 gnd.t91 gnd.t48 sky130_fd_pr__nfet_01v8 ad=2.73 pd=14.78 as=0 ps=0 w=7 l=1
X107 CSoutput.t57 a_n7636_8799.t63 vdd.t183 vdd.t16 sky130_fd_pr__pfet_01v8_lvt ad=1.32 pd=8.33 as=1.32 ps=8.33 w=8 l=0.5
X108 output.t1 outputibias.t8 gnd.t156 gnd.t155 sky130_fd_pr__nfet_01v8 ad=2.34 pd=12.78 as=2.34 ps=12.78 w=6 l=2
X109 a_n3827_n3924.t55 diffpairibias.t22 gnd.t209 gnd.t208 sky130_fd_pr__nfet_01v8 ad=2.73 pd=14.78 as=2.73 ps=14.78 w=7 l=1
X110 CSoutput.t14 a_n7636_8799.t64 vdd.t28 vdd.t27 sky130_fd_pr__pfet_01v8_lvt ad=1.32 pd=8.33 as=1.32 ps=8.33 w=8 l=0.5
X111 CSoutput.t15 a_n7636_8799.t65 vdd.t30 vdd.t29 sky130_fd_pr__pfet_01v8_lvt ad=1.32 pd=8.33 as=3.12 ps=16.78 w=8 l=0.5
X112 CSoutput.t8 a_n7636_8799.t66 vdd.t17 vdd.t16 sky130_fd_pr__pfet_01v8_lvt ad=1.32 pd=8.33 as=1.32 ps=8.33 w=8 l=0.5
X113 CSoutput.t176 commonsourceibias.t105 gnd.t375 gnd.t221 sky130_fd_pr__nfet_01v8 ad=1.155 pd=7.33 as=1.155 ps=7.33 w=7 l=1
X114 a_n3827_n3924.t23 plus.t13 a_n7636_8799.t14 gnd.t161 sky130_fd_pr__nfet_01v8 ad=1.155 pd=7.33 as=1.155 ps=7.33 w=7 l=0.9
X115 vdd.t19 a_n7636_8799.t67 CSoutput.t9 vdd.t18 sky130_fd_pr__pfet_01v8_lvt ad=1.32 pd=8.33 as=1.32 ps=8.33 w=8 l=0.5
X116 gnd.t338 commonsourceibias.t106 CSoutput.t175 gnd.t241 sky130_fd_pr__nfet_01v8 ad=1.155 pd=7.33 as=1.155 ps=7.33 w=7 l=1
X117 output.t16 CSoutput.t242 vdd.t151 gnd.t191 sky130_fd_pr__nfet_01v8_lvt ad=0.825 pd=5.33 as=0.825 ps=5.33 w=5 l=1
X118 commonsourceibias.t61 commonsourceibias.t60 gnd.t374 gnd.t229 sky130_fd_pr__nfet_01v8 ad=1.155 pd=7.33 as=1.155 ps=7.33 w=7 l=1
X119 gnd.t356 commonsourceibias.t107 CSoutput.t174 gnd.t263 sky130_fd_pr__nfet_01v8 ad=1.155 pd=7.33 as=1.155 ps=7.33 w=7 l=1
X120 vdd.t201 a_n7636_8799.t68 CSoutput.t72 vdd.t14 sky130_fd_pr__pfet_01v8_lvt ad=1.32 pd=8.33 as=1.32 ps=8.33 w=8 l=0.5
X121 CSoutput.t173 commonsourceibias.t108 gnd.t355 gnd.t243 sky130_fd_pr__nfet_01v8 ad=1.155 pd=7.33 as=1.155 ps=7.33 w=7 l=1
X122 a_n2848_n452.t25 a_n2848_n452.t24 a_n1808_13878.t14 vdd.t250 sky130_fd_pr__pfet_01v8_lvt ad=1.485 pd=9.33 as=1.485 ps=9.33 w=9 l=0.5
X123 CSoutput.t243 a_n1986_8322.t0 sky130_fd_pr__cap_mim_m3_1 l=12 w=12
X124 gnd.t373 commonsourceibias.t58 commonsourceibias.t59 gnd.t249 sky130_fd_pr__nfet_01v8 ad=1.155 pd=7.33 as=1.155 ps=7.33 w=7 l=1
X125 vdd.t202 a_n7636_8799.t69 CSoutput.t73 vdd.t131 sky130_fd_pr__pfet_01v8_lvt ad=1.32 pd=8.33 as=1.32 ps=8.33 w=8 l=0.5
X126 vdd.t282 a_n7636_8799.t70 CSoutput.t226 vdd.t2 sky130_fd_pr__pfet_01v8_lvt ad=1.32 pd=8.33 as=1.32 ps=8.33 w=8 l=0.5
X127 a_n7636_8799.t27 a_n2848_n452.t52 a_n1986_8322.t12 vdd.t240 sky130_fd_pr__pfet_01v8_lvt ad=1.485 pd=9.33 as=1.485 ps=9.33 w=9 l=0.5
X128 a_n2848_n452.t35 a_n2848_n452.t34 a_n1808_13878.t13 vdd.t212 sky130_fd_pr__pfet_01v8_lvt ad=3.51 pd=18.78 as=1.485 ps=9.33 w=9 l=0.5
X129 CSoutput.t172 commonsourceibias.t109 gnd.t372 gnd.t313 sky130_fd_pr__nfet_01v8 ad=1.155 pd=7.33 as=1.155 ps=7.33 w=7 l=1
X130 a_n2848_n452.t4 minus.t10 a_n3827_n3924.t32 gnd.t141 sky130_fd_pr__nfet_01v8 ad=1.155 pd=7.33 as=2.73 ps=14.78 w=7 l=0.9
X131 vdd.t283 a_n7636_8799.t71 CSoutput.t227 vdd.t18 sky130_fd_pr__pfet_01v8_lvt ad=1.32 pd=8.33 as=1.32 ps=8.33 w=8 l=0.5
X132 diffpairibias.t15 diffpairibias.t14 gnd.t126 gnd.t125 sky130_fd_pr__nfet_01v8 ad=2.73 pd=14.78 as=2.73 ps=14.78 w=7 l=1
X133 vdd.t128 a_n7636_8799.t72 CSoutput.t28 vdd.t127 sky130_fd_pr__pfet_01v8_lvt ad=1.32 pd=8.33 as=1.32 ps=8.33 w=8 l=0.5
X134 gnd.t357 commonsourceibias.t110 CSoutput.t171 gnd.t254 sky130_fd_pr__nfet_01v8 ad=1.155 pd=7.33 as=1.155 ps=7.33 w=7 l=1
X135 CSoutput.t29 a_n7636_8799.t73 vdd.t129 vdd.t121 sky130_fd_pr__pfet_01v8_lvt ad=1.32 pd=8.33 as=1.32 ps=8.33 w=8 l=0.5
X136 gnd.t371 commonsourceibias.t56 commonsourceibias.t57 gnd.t238 sky130_fd_pr__nfet_01v8 ad=1.155 pd=7.33 as=1.155 ps=7.33 w=7 l=1
X137 CSoutput.t170 commonsourceibias.t111 gnd.t370 gnd.t257 sky130_fd_pr__nfet_01v8 ad=1.155 pd=7.33 as=1.155 ps=7.33 w=7 l=1
X138 vdd.t141 a_n7636_8799.t74 CSoutput.t36 vdd.t12 sky130_fd_pr__pfet_01v8_lvt ad=1.32 pd=8.33 as=1.32 ps=8.33 w=8 l=0.5
X139 CSoutput.t169 commonsourceibias.t112 gnd.t369 gnd.t308 sky130_fd_pr__nfet_01v8 ad=1.155 pd=7.33 as=1.155 ps=7.33 w=7 l=1
X140 vdd.t103 vdd.t101 vdd.t102 vdd.t87 sky130_fd_pr__pfet_01v8_lvt ad=3.51 pd=18.78 as=0 ps=0 w=9 l=0.5
X141 a_n3827_n3924.t1 diffpairibias.t23 gnd.t124 gnd.t123 sky130_fd_pr__nfet_01v8 ad=2.73 pd=14.78 as=2.73 ps=14.78 w=7 l=1
X142 CSoutput.t37 a_n7636_8799.t75 vdd.t142 vdd.t21 sky130_fd_pr__pfet_01v8_lvt ad=1.32 pd=8.33 as=1.32 ps=8.33 w=8 l=0.5
X143 gnd.t368 commonsourceibias.t113 CSoutput.t168 gnd.t310 sky130_fd_pr__nfet_01v8 ad=1.155 pd=7.33 as=1.155 ps=7.33 w=7 l=1
X144 vdd.t100 vdd.t97 vdd.t99 vdd.t98 sky130_fd_pr__pfet_01v8_lvt ad=3.51 pd=18.78 as=0 ps=0 w=9 l=0.5
X145 output.t15 CSoutput.t244 vdd.t153 gnd.t192 sky130_fd_pr__nfet_01v8_lvt ad=0.825 pd=5.33 as=0.825 ps=5.33 w=5 l=1
X146 gnd.t89 gnd.t87 gnd.t88 gnd.t30 sky130_fd_pr__nfet_01v8 ad=2.73 pd=14.78 as=0 ps=0 w=7 l=0.9
X147 gnd.t86 gnd.t84 minus.t4 gnd.t85 sky130_fd_pr__nfet_01v8 ad=0.39 pd=2.78 as=0.165 ps=1.33 w=1 l=0.5
X148 vdd.t96 vdd.t93 vdd.t95 vdd.t94 sky130_fd_pr__pfet_01v8_lvt ad=3.51 pd=18.78 as=0 ps=0 w=9 l=0.5
X149 commonsourceibias.t55 commonsourceibias.t54 gnd.t367 gnd.t231 sky130_fd_pr__nfet_01v8 ad=1.155 pd=7.33 as=2.73 ps=14.78 w=7 l=1
X150 vdd.t92 vdd.t90 vdd.t91 vdd.t83 sky130_fd_pr__pfet_01v8_lvt ad=3.51 pd=18.78 as=0 ps=0 w=9 l=0.5
X151 gnd.t366 commonsourceibias.t114 CSoutput.t167 gnd.t285 sky130_fd_pr__nfet_01v8 ad=1.155 pd=7.33 as=1.155 ps=7.33 w=7 l=1
X152 commonsourceibias.t53 commonsourceibias.t52 gnd.t365 gnd.t212 sky130_fd_pr__nfet_01v8 ad=1.155 pd=7.33 as=1.155 ps=7.33 w=7 l=1
X153 vdd.t249 a_n2848_n452.t53 a_n1986_8322.t7 vdd.t248 sky130_fd_pr__pfet_01v8_lvt ad=1.485 pd=9.33 as=1.485 ps=9.33 w=9 l=0.5
X154 a_n1986_8322.t6 a_n2848_n452.t54 vdd.t247 vdd.t246 sky130_fd_pr__pfet_01v8_lvt ad=1.485 pd=9.33 as=1.485 ps=9.33 w=9 l=0.5
X155 CSoutput.t40 a_n7636_8799.t76 vdd.t146 vdd.t29 sky130_fd_pr__pfet_01v8_lvt ad=1.32 pd=8.33 as=3.12 ps=16.78 w=8 l=0.5
X156 CSoutput.t41 a_n7636_8799.t77 vdd.t147 vdd.t16 sky130_fd_pr__pfet_01v8_lvt ad=1.32 pd=8.33 as=1.32 ps=8.33 w=8 l=0.5
X157 gnd.t364 commonsourceibias.t50 commonsourceibias.t51 gnd.t227 sky130_fd_pr__nfet_01v8 ad=1.155 pd=7.33 as=1.155 ps=7.33 w=7 l=1
X158 CSoutput.t166 commonsourceibias.t115 gnd.t363 gnd.t272 sky130_fd_pr__nfet_01v8 ad=1.155 pd=7.33 as=1.155 ps=7.33 w=7 l=1
X159 gnd.t362 commonsourceibias.t116 CSoutput.t165 gnd.t223 sky130_fd_pr__nfet_01v8 ad=1.155 pd=7.33 as=1.155 ps=7.33 w=7 l=1
X160 output.t14 CSoutput.t245 vdd.t154 gnd.t202 sky130_fd_pr__nfet_01v8_lvt ad=0.825 pd=5.33 as=0.825 ps=5.33 w=5 l=1
X161 vdd.t162 CSoutput.t246 output.t13 gnd.t203 sky130_fd_pr__nfet_01v8_lvt ad=0.825 pd=5.33 as=0.825 ps=5.33 w=5 l=1
X162 vdd.t119 a_n7636_8799.t78 CSoutput.t22 vdd.t18 sky130_fd_pr__pfet_01v8_lvt ad=1.32 pd=8.33 as=1.32 ps=8.33 w=8 l=0.5
X163 gnd.t83 gnd.t81 plus.t3 gnd.t82 sky130_fd_pr__nfet_01v8 ad=0.39 pd=2.78 as=0.165 ps=1.33 w=1 l=0.5
X164 vdd.t245 a_n2848_n452.t55 a_n1808_13878.t6 vdd.t244 sky130_fd_pr__pfet_01v8_lvt ad=1.485 pd=9.33 as=1.485 ps=9.33 w=9 l=0.5
X165 CSoutput.t164 commonsourceibias.t117 gnd.t361 gnd.t289 sky130_fd_pr__nfet_01v8 ad=1.155 pd=7.33 as=1.155 ps=7.33 w=7 l=1
X166 a_n7636_8799.t11 plus.t14 a_n3827_n3924.t22 gnd.t134 sky130_fd_pr__nfet_01v8 ad=1.155 pd=7.33 as=2.73 ps=14.78 w=7 l=0.9
X167 commonsourceibias.t49 commonsourceibias.t48 gnd.t360 gnd.t218 sky130_fd_pr__nfet_01v8 ad=1.155 pd=7.33 as=1.155 ps=7.33 w=7 l=1
X168 a_n2848_n452.t17 minus.t11 a_n3827_n3924.t48 gnd.t135 sky130_fd_pr__nfet_01v8 ad=1.155 pd=7.33 as=1.155 ps=7.33 w=7 l=0.9
X169 gnd.t359 commonsourceibias.t118 CSoutput.t163 gnd.t252 sky130_fd_pr__nfet_01v8 ad=1.155 pd=7.33 as=1.155 ps=7.33 w=7 l=1
X170 vdd.t89 vdd.t86 vdd.t88 vdd.t87 sky130_fd_pr__pfet_01v8_lvt ad=3.51 pd=18.78 as=0 ps=0 w=9 l=0.5
X171 a_n7636_8799.t17 plus.t15 a_n3827_n3924.t21 gnd.t175 sky130_fd_pr__nfet_01v8 ad=1.155 pd=7.33 as=1.155 ps=7.33 w=7 l=0.9
X172 diffpairibias.t13 diffpairibias.t12 gnd.t177 gnd.t176 sky130_fd_pr__nfet_01v8 ad=2.73 pd=14.78 as=2.73 ps=14.78 w=7 l=1
X173 CSoutput.t247 a_n1986_8322.t0 sky130_fd_pr__cap_mim_m3_1 l=12 w=12
X174 a_n2848_n452.t20 minus.t12 a_n3827_n3924.t51 gnd.t180 sky130_fd_pr__nfet_01v8 ad=1.155 pd=7.33 as=1.155 ps=7.33 w=7 l=0.9
X175 vdd.t85 vdd.t82 vdd.t84 vdd.t83 sky130_fd_pr__pfet_01v8_lvt ad=3.51 pd=18.78 as=0 ps=0 w=9 l=0.5
X176 vdd.t120 a_n7636_8799.t79 CSoutput.t23 vdd.t2 sky130_fd_pr__pfet_01v8_lvt ad=1.32 pd=8.33 as=1.32 ps=8.33 w=8 l=0.5
X177 gnd.t358 commonsourceibias.t46 commonsourceibias.t47 gnd.t223 sky130_fd_pr__nfet_01v8 ad=1.155 pd=7.33 as=1.155 ps=7.33 w=7 l=1
X178 commonsourceibias.t45 commonsourceibias.t44 gnd.t354 gnd.t353 sky130_fd_pr__nfet_01v8 ad=1.155 pd=7.33 as=1.155 ps=7.33 w=7 l=1
X179 vdd.t81 vdd.t78 vdd.t80 vdd.t79 sky130_fd_pr__pfet_01v8_lvt ad=3.51 pd=18.78 as=0 ps=0 w=9 l=0.5
X180 a_n7636_8799.t26 a_n2848_n452.t56 a_n1986_8322.t11 vdd.t217 sky130_fd_pr__pfet_01v8_lvt ad=1.485 pd=9.33 as=1.485 ps=9.33 w=9 l=0.5
X181 a_n1986_8322.t5 a_n2848_n452.t57 vdd.t243 vdd.t242 sky130_fd_pr__pfet_01v8_lvt ad=3.51 pd=18.78 as=1.485 ps=9.33 w=9 l=0.5
X182 CSoutput.t20 a_n7636_8799.t80 vdd.t40 vdd.t39 sky130_fd_pr__pfet_01v8_lvt ad=1.32 pd=8.33 as=1.32 ps=8.33 w=8 l=0.5
X183 gnd.t352 commonsourceibias.t119 CSoutput.t162 gnd.t259 sky130_fd_pr__nfet_01v8 ad=1.155 pd=7.33 as=1.155 ps=7.33 w=7 l=1
X184 vdd.t42 a_n7636_8799.t81 CSoutput.t21 vdd.t41 sky130_fd_pr__pfet_01v8_lvt ad=1.32 pd=8.33 as=1.32 ps=8.33 w=8 l=0.5
X185 gnd.t77 gnd.t75 gnd.t76 gnd.t52 sky130_fd_pr__nfet_01v8 ad=2.73 pd=14.78 as=0 ps=0 w=7 l=1
X186 vdd.t199 a_n7636_8799.t82 CSoutput.t70 vdd.t127 sky130_fd_pr__pfet_01v8_lvt ad=1.32 pd=8.33 as=1.32 ps=8.33 w=8 l=0.5
X187 a_n2848_n452.t31 a_n2848_n452.t30 a_n1808_13878.t12 vdd.t228 sky130_fd_pr__pfet_01v8_lvt ad=1.485 pd=9.33 as=1.485 ps=9.33 w=9 l=0.5
X188 gnd.t351 commonsourceibias.t120 CSoutput.t161 gnd.t238 sky130_fd_pr__nfet_01v8 ad=1.155 pd=7.33 as=1.155 ps=7.33 w=7 l=1
X189 a_n3827_n3924.t3 minus.t13 a_n2848_n452.t1 gnd.t131 sky130_fd_pr__nfet_01v8 ad=1.155 pd=7.33 as=1.155 ps=7.33 w=7 l=0.9
X190 a_n7636_8799.t25 a_n2848_n452.t58 a_n1986_8322.t20 vdd.t241 sky130_fd_pr__pfet_01v8_lvt ad=1.485 pd=9.33 as=1.485 ps=9.33 w=9 l=0.5
X191 CSoutput.t71 a_n7636_8799.t83 vdd.t200 vdd.t121 sky130_fd_pr__pfet_01v8_lvt ad=1.32 pd=8.33 as=1.32 ps=8.33 w=8 l=0.5
X192 output.t2 outputibias.t9 gnd.t160 gnd.t159 sky130_fd_pr__nfet_01v8 ad=2.34 pd=12.78 as=2.34 ps=12.78 w=6 l=2
X193 a_n1808_13878.t11 a_n2848_n452.t32 a_n2848_n452.t33 vdd.t240 sky130_fd_pr__pfet_01v8_lvt ad=1.485 pd=9.33 as=1.485 ps=9.33 w=9 l=0.5
X194 output.t12 CSoutput.t248 vdd.t161 gnd.t204 sky130_fd_pr__nfet_01v8_lvt ad=0.825 pd=5.33 as=0.825 ps=5.33 w=5 l=1
X195 a_n2848_n452.t16 minus.t14 a_n3827_n3924.t47 gnd.t173 sky130_fd_pr__nfet_01v8 ad=1.155 pd=7.33 as=1.155 ps=7.33 w=7 l=0.9
X196 a_n3827_n3924.t20 plus.t16 a_n7636_8799.t2 gnd.t133 sky130_fd_pr__nfet_01v8 ad=1.155 pd=7.33 as=1.155 ps=7.33 w=7 l=0.9
X197 gnd.t80 gnd.t78 gnd.t79 gnd.t48 sky130_fd_pr__nfet_01v8 ad=2.73 pd=14.78 as=0 ps=0 w=7 l=1
X198 CSoutput.t160 commonsourceibias.t121 gnd.t350 gnd.t221 sky130_fd_pr__nfet_01v8 ad=1.155 pd=7.33 as=1.155 ps=7.33 w=7 l=1
X199 CSoutput.t18 a_n7636_8799.t84 vdd.t36 vdd.t35 sky130_fd_pr__pfet_01v8_lvt ad=1.32 pd=8.33 as=1.32 ps=8.33 w=8 l=0.5
X200 gnd.t349 commonsourceibias.t122 CSoutput.t159 gnd.t267 sky130_fd_pr__nfet_01v8 ad=1.155 pd=7.33 as=1.155 ps=7.33 w=7 l=1
X201 commonsourceibias.t7 commonsourceibias.t6 gnd.t348 gnd.t279 sky130_fd_pr__nfet_01v8 ad=1.155 pd=7.33 as=1.155 ps=7.33 w=7 l=1
X202 gnd.t347 commonsourceibias.t123 CSoutput.t158 gnd.t265 sky130_fd_pr__nfet_01v8 ad=1.155 pd=7.33 as=1.155 ps=7.33 w=7 l=1
X203 vdd.t239 a_n2848_n452.t59 a_n1986_8322.t4 vdd.t238 sky130_fd_pr__pfet_01v8_lvt ad=1.485 pd=9.33 as=3.51 ps=18.78 w=9 l=0.5
X204 gnd.t346 commonsourceibias.t124 CSoutput.t157 gnd.t263 sky130_fd_pr__nfet_01v8 ad=1.155 pd=7.33 as=1.155 ps=7.33 w=7 l=1
X205 vdd.t38 a_n7636_8799.t85 CSoutput.t19 vdd.t37 sky130_fd_pr__pfet_01v8_lvt ad=1.32 pd=8.33 as=1.32 ps=8.33 w=8 l=0.5
X206 output.t11 CSoutput.t249 vdd.t165 gnd.t200 sky130_fd_pr__nfet_01v8_lvt ad=0.825 pd=5.33 as=0.825 ps=5.33 w=5 l=1
X207 a_n3827_n3924.t2 diffpairibias.t24 gnd.t128 gnd.t127 sky130_fd_pr__nfet_01v8 ad=2.73 pd=14.78 as=2.73 ps=14.78 w=7 l=1
X208 a_n3827_n3924.t38 diffpairibias.t25 gnd.t154 gnd.t153 sky130_fd_pr__nfet_01v8 ad=2.73 pd=14.78 as=2.73 ps=14.78 w=7 l=1
X209 a_n7636_8799.t15 plus.t17 a_n3827_n3924.t19 gnd.t162 sky130_fd_pr__nfet_01v8 ad=1.155 pd=7.33 as=1.155 ps=7.33 w=7 l=0.9
X210 CSoutput.t64 a_n7636_8799.t86 vdd.t191 vdd.t124 sky130_fd_pr__pfet_01v8_lvt ad=1.32 pd=8.33 as=1.32 ps=8.33 w=8 l=0.5
X211 vdd.t192 a_n7636_8799.t87 CSoutput.t65 vdd.t31 sky130_fd_pr__pfet_01v8_lvt ad=3.12 pd=16.78 as=1.32 ps=8.33 w=8 l=0.5
X212 vdd.t210 a_n7636_8799.t88 CSoutput.t80 vdd.t133 sky130_fd_pr__pfet_01v8_lvt ad=1.32 pd=8.33 as=1.32 ps=8.33 w=8 l=0.5
X213 a_n7636_8799.t10 plus.t18 a_n3827_n3924.t18 gnd.t157 sky130_fd_pr__nfet_01v8 ad=1.155 pd=7.33 as=1.155 ps=7.33 w=7 l=0.9
X214 CSoutput.t250 a_n1986_8322.t0 sky130_fd_pr__cap_mim_m3_1 l=12 w=12
X215 vdd.t211 a_n7636_8799.t89 CSoutput.t81 vdd.t14 sky130_fd_pr__pfet_01v8_lvt ad=1.32 pd=8.33 as=1.32 ps=8.33 w=8 l=0.5
X216 vdd.t271 a_n7636_8799.t90 CSoutput.t216 vdd.t177 sky130_fd_pr__pfet_01v8_lvt ad=1.32 pd=8.33 as=1.32 ps=8.33 w=8 l=0.5
X217 minus.t3 gnd.t72 gnd.t74 gnd.t73 sky130_fd_pr__nfet_01v8 ad=0.165 pd=1.33 as=0.165 ps=1.33 w=1 l=0.5
X218 CSoutput.t251 a_n1986_8322.t0 sky130_fd_pr__cap_mim_m3_1 l=12 w=12
X219 CSoutput.t156 commonsourceibias.t125 gnd.t345 gnd.t323 sky130_fd_pr__nfet_01v8 ad=1.155 pd=7.33 as=1.155 ps=7.33 w=7 l=1
X220 gnd.t71 gnd.t69 gnd.t70 gnd.t13 sky130_fd_pr__nfet_01v8 ad=2.73 pd=14.78 as=0 ps=0 w=7 l=1
X221 gnd.t344 commonsourceibias.t126 CSoutput.t155 gnd.t285 sky130_fd_pr__nfet_01v8 ad=1.155 pd=7.33 as=1.155 ps=7.33 w=7 l=1
X222 diffpairibias.t11 diffpairibias.t10 gnd.t145 gnd.t144 sky130_fd_pr__nfet_01v8 ad=2.73 pd=14.78 as=2.73 ps=14.78 w=7 l=1
X223 gnd.t68 gnd.t66 gnd.t67 gnd.t38 sky130_fd_pr__nfet_01v8 ad=2.73 pd=14.78 as=0 ps=0 w=7 l=1
X224 vdd.t164 CSoutput.t252 output.t10 gnd.t201 sky130_fd_pr__nfet_01v8_lvt ad=0.825 pd=5.33 as=0.825 ps=5.33 w=5 l=1
X225 a_n2848_n452.t0 minus.t15 a_n3827_n3924.t0 gnd.t0 sky130_fd_pr__nfet_01v8 ad=1.155 pd=7.33 as=1.155 ps=7.33 w=7 l=0.9
X226 gnd.t343 commonsourceibias.t127 CSoutput.t154 gnd.t241 sky130_fd_pr__nfet_01v8 ad=1.155 pd=7.33 as=1.155 ps=7.33 w=7 l=1
X227 CSoutput.t217 a_n7636_8799.t91 vdd.t272 vdd.t33 sky130_fd_pr__pfet_01v8_lvt ad=1.32 pd=8.33 as=1.32 ps=8.33 w=8 l=0.5
X228 gnd.t342 commonsourceibias.t128 CSoutput.t153 gnd.t293 sky130_fd_pr__nfet_01v8 ad=1.155 pd=7.33 as=1.155 ps=7.33 w=7 l=1
X229 CSoutput.t152 commonsourceibias.t129 gnd.t341 gnd.t231 sky130_fd_pr__nfet_01v8 ad=1.155 pd=7.33 as=2.73 ps=14.78 w=7 l=1
X230 a_n3827_n3924.t17 plus.t19 a_n7636_8799.t7 gnd.t150 sky130_fd_pr__nfet_01v8 ad=1.155 pd=7.33 as=1.155 ps=7.33 w=7 l=0.9
X231 CSoutput.t234 a_n7636_8799.t92 vdd.t290 vdd.t186 sky130_fd_pr__pfet_01v8_lvt ad=1.32 pd=8.33 as=1.32 ps=8.33 w=8 l=0.5
X232 CSoutput.t235 a_n7636_8799.t93 vdd.t291 vdd.t196 sky130_fd_pr__pfet_01v8_lvt ad=1.32 pd=8.33 as=1.32 ps=8.33 w=8 l=0.5
X233 outputibias.t5 outputibias.t4 gnd.t415 gnd.t414 sky130_fd_pr__nfet_01v8 ad=2.34 pd=12.78 as=2.34 ps=12.78 w=6 l=2
X234 a_n1808_13878.t5 a_n2848_n452.t60 vdd.t237 vdd.t236 sky130_fd_pr__pfet_01v8_lvt ad=1.485 pd=9.33 as=1.485 ps=9.33 w=9 l=0.5
X235 diffpairibias.t9 diffpairibias.t8 gnd.t166 gnd.t165 sky130_fd_pr__nfet_01v8 ad=2.73 pd=14.78 as=2.73 ps=14.78 w=7 l=1
X236 gnd.t340 commonsourceibias.t130 CSoutput.t151 gnd.t259 sky130_fd_pr__nfet_01v8 ad=1.155 pd=7.33 as=1.155 ps=7.33 w=7 l=1
X237 vdd.t77 vdd.t75 vdd.t76 vdd.t51 sky130_fd_pr__pfet_01v8_lvt ad=3.12 pd=16.78 as=0 ps=0 w=8 l=0.5
X238 vdd.t235 a_n2848_n452.t61 a_n1808_13878.t4 vdd.t234 sky130_fd_pr__pfet_01v8_lvt ad=1.485 pd=9.33 as=1.485 ps=9.33 w=9 l=0.5
X239 vdd.t163 CSoutput.t253 output.t9 gnd.t205 sky130_fd_pr__nfet_01v8_lvt ad=0.825 pd=5.33 as=0.825 ps=5.33 w=5 l=1
X240 vdd.t74 vdd.t72 vdd.t73 vdd.t59 sky130_fd_pr__pfet_01v8_lvt ad=3.12 pd=16.78 as=0 ps=0 w=8 l=0.5
X241 gnd.t339 commonsourceibias.t131 CSoutput.t150 gnd.t236 sky130_fd_pr__nfet_01v8 ad=1.155 pd=7.33 as=1.155 ps=7.33 w=7 l=1
X242 CSoutput.t54 a_n7636_8799.t94 vdd.t180 vdd.t35 sky130_fd_pr__pfet_01v8_lvt ad=1.32 pd=8.33 as=1.32 ps=8.33 w=8 l=0.5
X243 commonsourceibias.t5 commonsourceibias.t4 gnd.t335 gnd.t323 sky130_fd_pr__nfet_01v8 ad=1.155 pd=7.33 as=1.155 ps=7.33 w=7 l=1
X244 vdd.t181 a_n7636_8799.t95 CSoutput.t55 vdd.t37 sky130_fd_pr__pfet_01v8_lvt ad=1.32 pd=8.33 as=1.32 ps=8.33 w=8 l=0.5
X245 a_n3827_n3924.t35 minus.t16 a_n2848_n452.t7 gnd.t148 sky130_fd_pr__nfet_01v8 ad=1.155 pd=7.33 as=1.155 ps=7.33 w=7 l=0.9