* NGSPICE file created from opamp588.ext - technology: sky130A

.subckt opamp588 gnd CSoutput output vdd plus minus commonsourceibias outputibias
+ diffpairibias
X0 a_n2472_13878.t24 a_n2848_n452.t23 a_n2848_n452.t24 vdd.t179 sky130_fd_pr__pfet_01v8 ad=1.485 pd=9.33 as=1.485 ps=9.33 w=9 l=0.5
X1 CSoutput.t67 a_n6972_8799.t44 vdd.t8 vdd.t7 sky130_fd_pr__pfet_01v8 ad=1.32 pd=8.33 as=3.12 ps=16.78 w=8 l=0.5
X2 a_n2472_13878.t3 a_n2848_n452.t64 vdd.t191 vdd.t190 sky130_fd_pr__pfet_01v8 ad=1.485 pd=9.33 as=1.485 ps=9.33 w=9 l=0.5
X3 vdd.t10 a_n6972_8799.t45 CSoutput.t66 vdd.t9 sky130_fd_pr__pfet_01v8 ad=1.32 pd=8.33 as=1.32 ps=8.33 w=8 l=0.5
X4 vdd.t137 vdd.t135 vdd.t136 vdd.t63 sky130_fd_pr__pfet_01v8 ad=3.12 pd=16.78 as=0 ps=0 w=8 l=0.5
X5 a_n6972_8799.t18 plus.t5 a_n3827_n3924.t38 gnd.t14 sky130_fd_pr__nfet_01v8 ad=1.155 pd=7.33 as=1.155 ps=7.33 w=7 l=0.9
X6 CSoutput.t65 a_n6972_8799.t46 vdd.t54 vdd.t43 sky130_fd_pr__pfet_01v8 ad=1.32 pd=8.33 as=1.32 ps=8.33 w=8 l=0.5
X7 a_n3827_n3924.t37 plus.t6 a_n6972_8799.t4 gnd.t36 sky130_fd_pr__nfet_01v8 ad=1.155 pd=7.33 as=1.155 ps=7.33 w=7 l=0.9
X8 gnd.t151 gnd.t149 gnd.t150 gnd.t127 sky130_fd_pr__nfet_01v8 ad=2.73 pd=14.78 as=0 ps=0 w=7 l=1
X9 a_n3827_n3924.t48 diffpairibias.t20 gnd.t249 gnd.t248 sky130_fd_pr__nfet_01v8 ad=2.73 pd=14.78 as=2.73 ps=14.78 w=7 l=1
X10 gnd.t269 commonsourceibias.t48 CSoutput.t85 gnd.t190 sky130_fd_pr__nfet_01v8 ad=1.155 pd=7.33 as=1.155 ps=7.33 w=7 l=1
X11 gnd.t148 gnd.t145 gnd.t147 gnd.t146 sky130_fd_pr__nfet_01v8 ad=1.95 pd=10.78 as=0 ps=0 w=5 l=1
X12 commonsourceibias.t47 commonsourceibias.t46 gnd.t209 gnd.t208 sky130_fd_pr__nfet_01v8 ad=1.155 pd=7.33 as=1.155 ps=7.33 w=7 l=1
X13 a_n2650_8322.t19 a_n2848_n452.t65 a_n6972_8799.t33 vdd.t188 sky130_fd_pr__pfet_01v8 ad=1.485 pd=9.33 as=1.485 ps=9.33 w=9 l=0.5
X14 CSoutput.t74 commonsourceibias.t49 gnd.t219 gnd.t20 sky130_fd_pr__nfet_01v8 ad=1.155 pd=7.33 as=1.155 ps=7.33 w=7 l=1
X15 gnd.t144 gnd.t142 gnd.t143 gnd.t70 sky130_fd_pr__nfet_01v8 ad=2.73 pd=14.78 as=0 ps=0 w=7 l=1
X16 vdd.t31 CSoutput.t96 output.t19 gnd.t267 sky130_fd_pr__nfet_01v8 ad=0.825 pd=5.33 as=0.825 ps=5.33 w=5 l=1
X17 CSoutput.t64 a_n6972_8799.t47 vdd.t55 vdd.t40 sky130_fd_pr__pfet_01v8 ad=1.32 pd=8.33 as=1.32 ps=8.33 w=8 l=0.5
X18 vdd.t25 a_n6972_8799.t48 CSoutput.t63 vdd.t4 sky130_fd_pr__pfet_01v8 ad=1.32 pd=8.33 as=1.32 ps=8.33 w=8 l=0.5
X19 gnd.t141 gnd.t139 gnd.t140 gnd.t70 sky130_fd_pr__nfet_01v8 ad=2.73 pd=14.78 as=0 ps=0 w=7 l=1
X20 gnd.t215 commonsourceibias.t44 commonsourceibias.t45 gnd.t214 sky130_fd_pr__nfet_01v8 ad=2.73 pd=14.78 as=1.155 ps=7.33 w=7 l=1
X21 CSoutput.t9 commonsourceibias.t50 gnd.t167 gnd.t166 sky130_fd_pr__nfet_01v8 ad=1.155 pd=7.33 as=1.155 ps=7.33 w=7 l=1
X22 a_n6972_8799.t28 a_n2848_n452.t66 a_n2650_8322.t18 vdd.t177 sky130_fd_pr__pfet_01v8 ad=1.485 pd=9.33 as=1.485 ps=9.33 w=9 l=0.5
X23 a_n2848_n452.t0 minus.t5 a_n3827_n3924.t0 gnd.t10 sky130_fd_pr__nfet_01v8 ad=1.155 pd=7.33 as=1.155 ps=7.33 w=7 l=0.9
X24 a_n6972_8799.t3 plus.t7 a_n3827_n3924.t36 gnd.t37 sky130_fd_pr__nfet_01v8 ad=1.155 pd=7.33 as=1.155 ps=7.33 w=7 l=0.9
X25 commonsourceibias.t43 commonsourceibias.t42 gnd.t194 gnd.t166 sky130_fd_pr__nfet_01v8 ad=1.155 pd=7.33 as=1.155 ps=7.33 w=7 l=1
X26 plus.t1 gnd.t136 gnd.t138 gnd.t137 sky130_fd_pr__nfet_01v8 ad=0.165 pd=1.33 as=0.165 ps=1.33 w=1 l=0.5
X27 CSoutput.t95 commonsourceibias.t51 gnd.t295 gnd.t17 sky130_fd_pr__nfet_01v8 ad=1.155 pd=7.33 as=1.155 ps=7.33 w=7 l=1
X28 a_n2848_n452.t2 minus.t6 a_n3827_n3924.t2 gnd.t12 sky130_fd_pr__nfet_01v8 ad=1.155 pd=7.33 as=1.155 ps=7.33 w=7 l=0.9
X29 a_n6972_8799.t35 a_n2848_n452.t67 a_n2650_8322.t17 vdd.t141 sky130_fd_pr__pfet_01v8 ad=1.485 pd=9.33 as=3.51 ps=18.78 w=9 l=0.5
X30 gnd.t135 gnd.t133 gnd.t134 gnd.t127 sky130_fd_pr__nfet_01v8 ad=2.73 pd=14.78 as=0 ps=0 w=7 l=1
X31 CSoutput.t62 a_n6972_8799.t49 vdd.t26 vdd.t7 sky130_fd_pr__pfet_01v8 ad=1.32 pd=8.33 as=3.12 ps=16.78 w=8 l=0.5
X32 a_n3827_n3924.t35 plus.t8 a_n6972_8799.t20 gnd.t42 sky130_fd_pr__nfet_01v8 ad=1.155 pd=7.33 as=1.155 ps=7.33 w=7 l=0.9
X33 vdd.t134 vdd.t132 vdd.t133 vdd.t63 sky130_fd_pr__pfet_01v8 ad=3.12 pd=16.78 as=0 ps=0 w=8 l=0.5
X34 a_n3827_n3924.t14 minus.t7 a_n2848_n452.t13 gnd.t43 sky130_fd_pr__nfet_01v8 ad=1.155 pd=7.33 as=1.155 ps=7.33 w=7 l=0.9
X35 a_n3827_n3924.t43 diffpairibias.t21 gnd.t232 gnd.t231 sky130_fd_pr__nfet_01v8 ad=2.73 pd=14.78 as=2.73 ps=14.78 w=7 l=1
X36 CSoutput.t4 commonsourceibias.t52 gnd.t23 gnd.t22 sky130_fd_pr__nfet_01v8 ad=1.155 pd=7.33 as=1.155 ps=7.33 w=7 l=1
X37 gnd.t180 commonsourceibias.t53 CSoutput.t13 gnd.t179 sky130_fd_pr__nfet_01v8 ad=1.155 pd=7.33 as=1.155 ps=7.33 w=7 l=1
X38 CSoutput.t61 a_n6972_8799.t50 vdd.t44 vdd.t43 sky130_fd_pr__pfet_01v8 ad=1.32 pd=8.33 as=1.32 ps=8.33 w=8 l=0.5
X39 output.t18 CSoutput.t97 vdd.t32 gnd.t266 sky130_fd_pr__nfet_01v8 ad=0.825 pd=5.33 as=0.825 ps=5.33 w=5 l=1
X40 vdd.t131 vdd.t129 vdd.t130 vdd.t79 sky130_fd_pr__pfet_01v8 ad=3.51 pd=18.78 as=0 ps=0 w=9 l=0.5
X41 gnd.t165 commonsourceibias.t54 CSoutput.t8 gnd.t164 sky130_fd_pr__nfet_01v8 ad=1.155 pd=7.33 as=1.155 ps=7.33 w=7 l=1
X42 a_n2472_13878.t23 a_n2848_n452.t43 a_n2848_n452.t44 vdd.t149 sky130_fd_pr__pfet_01v8 ad=1.485 pd=9.33 as=1.485 ps=9.33 w=9 l=0.5
X43 a_n2848_n452.t54 a_n2848_n452.t53 a_n2472_13878.t22 vdd.t160 sky130_fd_pr__pfet_01v8 ad=1.485 pd=9.33 as=1.485 ps=9.33 w=9 l=0.5
X44 CSoutput.t60 a_n6972_8799.t51 vdd.t45 vdd.t40 sky130_fd_pr__pfet_01v8 ad=1.32 pd=8.33 as=1.32 ps=8.33 w=8 l=0.5
X45 gnd.t163 commonsourceibias.t55 CSoutput.t7 gnd.t162 sky130_fd_pr__nfet_01v8 ad=1.155 pd=7.33 as=1.155 ps=7.33 w=7 l=1
X46 gnd.t132 gnd.t130 gnd.t131 gnd.t91 sky130_fd_pr__nfet_01v8 ad=2.73 pd=14.78 as=0 ps=0 w=7 l=0.9
X47 vdd.t128 vdd.t126 vdd.t127 vdd.t109 sky130_fd_pr__pfet_01v8 ad=3.51 pd=18.78 as=0 ps=0 w=9 l=0.5
X48 vdd.t194 a_n6972_8799.t52 CSoutput.t59 vdd.t4 sky130_fd_pr__pfet_01v8 ad=1.32 pd=8.33 as=1.32 ps=8.33 w=8 l=0.5
X49 a_n3827_n3924.t34 plus.t9 a_n6972_8799.t2 gnd.t161 sky130_fd_pr__nfet_01v8 ad=1.155 pd=7.33 as=1.155 ps=7.33 w=7 l=0.9
X50 gnd.t282 commonsourceibias.t40 commonsourceibias.t41 gnd.t179 sky130_fd_pr__nfet_01v8 ad=1.155 pd=7.33 as=1.155 ps=7.33 w=7 l=1
X51 a_n3827_n3924.t33 plus.t10 a_n6972_8799.t0 gnd.t160 sky130_fd_pr__nfet_01v8 ad=1.155 pd=7.33 as=1.155 ps=7.33 w=7 l=0.9
X52 a_n3827_n3924.t50 minus.t8 a_n2848_n452.t61 gnd.t154 sky130_fd_pr__nfet_01v8 ad=2.73 pd=14.78 as=1.155 ps=7.33 w=7 l=0.9
X53 outputibias.t7 outputibias.t6 gnd.t240 gnd.t239 sky130_fd_pr__nfet_01v8 ad=2.34 pd=12.78 as=2.34 ps=12.78 w=6 l=2
X54 diffpairibias.t19 diffpairibias.t18 gnd.t204 gnd.t203 sky130_fd_pr__nfet_01v8 ad=2.73 pd=14.78 as=2.73 ps=14.78 w=7 l=1
X55 a_n2848_n452.t32 a_n2848_n452.t31 a_n2472_13878.t21 vdd.t174 sky130_fd_pr__pfet_01v8 ad=1.485 pd=9.33 as=1.485 ps=9.33 w=9 l=0.5
X56 a_n6972_8799.t39 a_n2848_n452.t68 a_n2650_8322.t16 vdd.t169 sky130_fd_pr__pfet_01v8 ad=1.485 pd=9.33 as=1.485 ps=9.33 w=9 l=0.5
X57 vdd.t195 a_n6972_8799.t53 CSoutput.t58 vdd.t21 sky130_fd_pr__pfet_01v8 ad=1.32 pd=8.33 as=1.32 ps=8.33 w=8 l=0.5
X58 a_n2848_n452.t30 a_n2848_n452.t29 a_n2472_13878.t20 vdd.t189 sky130_fd_pr__pfet_01v8 ad=3.51 pd=18.78 as=1.485 ps=9.33 w=9 l=0.5
X59 CSoutput.t57 a_n6972_8799.t54 vdd.t198 vdd.t2 sky130_fd_pr__pfet_01v8 ad=1.32 pd=8.33 as=1.32 ps=8.33 w=8 l=0.5
X60 commonsourceibias.t39 commonsourceibias.t38 gnd.t229 gnd.t212 sky130_fd_pr__nfet_01v8 ad=1.155 pd=7.33 as=1.155 ps=7.33 w=7 l=1
X61 a_n6972_8799.t29 a_n2848_n452.t69 a_n2650_8322.t15 vdd.t168 sky130_fd_pr__pfet_01v8 ad=1.485 pd=9.33 as=3.51 ps=18.78 w=9 l=0.5
X62 gnd.t281 commonsourceibias.t36 commonsourceibias.t37 gnd.t174 sky130_fd_pr__nfet_01v8 ad=1.155 pd=7.33 as=1.155 ps=7.33 w=7 l=1
X63 diffpairibias.t17 diffpairibias.t16 gnd.t227 gnd.t226 sky130_fd_pr__nfet_01v8 ad=2.73 pd=14.78 as=2.73 ps=14.78 w=7 l=1
X64 gnd.t129 gnd.t126 gnd.t128 gnd.t127 sky130_fd_pr__nfet_01v8 ad=2.73 pd=14.78 as=0 ps=0 w=7 l=1
X65 CSoutput.t56 a_n6972_8799.t55 vdd.t199 vdd.t56 sky130_fd_pr__pfet_01v8 ad=1.32 pd=8.33 as=3.12 ps=16.78 w=8 l=0.5
X66 CSoutput.t98 a_n2650_8322.t33 sky130_fd_pr__cap_mim_m3_1 l=12 w=12
X67 CSoutput.t3 commonsourceibias.t56 gnd.t21 gnd.t20 sky130_fd_pr__nfet_01v8 ad=1.155 pd=7.33 as=1.155 ps=7.33 w=7 l=1
X68 a_n2650_8322.t14 a_n2848_n452.t70 a_n6972_8799.t40 vdd.t189 sky130_fd_pr__pfet_01v8 ad=3.51 pd=18.78 as=1.485 ps=9.33 w=9 l=0.5
X69 a_n3827_n3924.t39 minus.t9 a_n2848_n452.t14 gnd.t153 sky130_fd_pr__nfet_01v8 ad=1.155 pd=7.33 as=1.155 ps=7.33 w=7 l=0.9
X70 gnd.t276 commonsourceibias.t34 commonsourceibias.t35 gnd.t162 sky130_fd_pr__nfet_01v8 ad=1.155 pd=7.33 as=1.155 ps=7.33 w=7 l=1
X71 vdd.t30 CSoutput.t99 output.t17 gnd.t265 sky130_fd_pr__nfet_01v8 ad=0.825 pd=5.33 as=0.825 ps=5.33 w=5 l=1
X72 CSoutput.t0 commonsourceibias.t57 gnd.t1 gnd.t0 sky130_fd_pr__nfet_01v8 ad=1.155 pd=7.33 as=1.155 ps=7.33 w=7 l=1
X73 a_n3827_n3924.t32 plus.t11 a_n6972_8799.t13 gnd.t159 sky130_fd_pr__nfet_01v8 ad=2.73 pd=14.78 as=1.155 ps=7.33 w=7 l=0.9
X74 a_n6972_8799.t15 plus.t12 a_n3827_n3924.t31 gnd.t158 sky130_fd_pr__nfet_01v8 ad=1.155 pd=7.33 as=1.155 ps=7.33 w=7 l=0.9
X75 CSoutput.t100 a_n2650_8322.t32 sky130_fd_pr__cap_mim_m3_1 l=12 w=12
X76 CSoutput.t87 commonsourceibias.t58 gnd.t280 gnd.t17 sky130_fd_pr__nfet_01v8 ad=1.155 pd=7.33 as=1.155 ps=7.33 w=7 l=1
X77 a_n3827_n3924.t56 diffpairibias.t22 gnd.t299 gnd.t298 sky130_fd_pr__nfet_01v8 ad=2.73 pd=14.78 as=2.73 ps=14.78 w=7 l=1
X78 vdd.t36 a_n6972_8799.t56 CSoutput.t55 vdd.t13 sky130_fd_pr__pfet_01v8 ad=3.12 pd=16.78 as=1.32 ps=8.33 w=8 l=0.5
X79 a_n6972_8799.t27 a_n2848_n452.t71 a_n2650_8322.t13 vdd.t178 sky130_fd_pr__pfet_01v8 ad=1.485 pd=9.33 as=1.485 ps=9.33 w=9 l=0.5
X80 a_n2848_n452.t52 a_n2848_n452.t51 a_n2472_13878.t19 vdd.t188 sky130_fd_pr__pfet_01v8 ad=1.485 pd=9.33 as=1.485 ps=9.33 w=9 l=0.5
X81 a_n3827_n3924.t30 plus.t13 a_n6972_8799.t9 gnd.t38 sky130_fd_pr__nfet_01v8 ad=1.155 pd=7.33 as=1.155 ps=7.33 w=7 l=0.9
X82 a_n2848_n452.t60 a_n2848_n452.t59 a_n2472_13878.t18 vdd.t144 sky130_fd_pr__pfet_01v8 ad=3.51 pd=18.78 as=1.485 ps=9.33 w=9 l=0.5
X83 gnd.t290 commonsourceibias.t32 commonsourceibias.t33 gnd.t2 sky130_fd_pr__nfet_01v8 ad=2.73 pd=14.78 as=1.155 ps=7.33 w=7 l=1
X84 gnd.t271 commonsourceibias.t30 commonsourceibias.t31 gnd.t223 sky130_fd_pr__nfet_01v8 ad=1.155 pd=7.33 as=1.155 ps=7.33 w=7 l=1
X85 CSoutput.t54 a_n6972_8799.t57 vdd.t37 vdd.t17 sky130_fd_pr__pfet_01v8 ad=1.32 pd=8.33 as=1.32 ps=8.33 w=8 l=0.5
X86 vdd.t200 a_n6972_8799.t58 CSoutput.t53 vdd.t15 sky130_fd_pr__pfet_01v8 ad=1.32 pd=8.33 as=1.32 ps=8.33 w=8 l=0.5
X87 a_n2848_n452.t9 minus.t10 a_n3827_n3924.t10 gnd.t39 sky130_fd_pr__nfet_01v8 ad=1.155 pd=7.33 as=2.73 ps=14.78 w=7 l=0.9
X88 diffpairibias.t15 diffpairibias.t14 gnd.t30 gnd.t29 sky130_fd_pr__nfet_01v8 ad=2.73 pd=14.78 as=2.73 ps=14.78 w=7 l=1
X89 output.t16 CSoutput.t101 vdd.t33 gnd.t264 sky130_fd_pr__nfet_01v8 ad=0.825 pd=5.33 as=0.825 ps=5.33 w=5 l=1
X90 CSoutput.t52 a_n6972_8799.t59 vdd.t201 vdd.t56 sky130_fd_pr__pfet_01v8 ad=1.32 pd=8.33 as=3.12 ps=16.78 w=8 l=0.5
X91 vdd.t125 vdd.t123 vdd.t124 vdd.t113 sky130_fd_pr__pfet_01v8 ad=3.51 pd=18.78 as=0 ps=0 w=9 l=0.5
X92 vdd.t122 vdd.t119 vdd.t121 vdd.t120 sky130_fd_pr__pfet_01v8 ad=3.51 pd=18.78 as=0 ps=0 w=9 l=0.5
X93 gnd.t193 commonsourceibias.t59 CSoutput.t18 gnd.t164 sky130_fd_pr__nfet_01v8 ad=1.155 pd=7.33 as=1.155 ps=7.33 w=7 l=1
X94 gnd.t289 commonsourceibias.t60 CSoutput.t90 gnd.t174 sky130_fd_pr__nfet_01v8 ad=1.155 pd=7.33 as=1.155 ps=7.33 w=7 l=1
X95 output.t15 CSoutput.t102 vdd.t34 gnd.t263 sky130_fd_pr__nfet_01v8 ad=1.95 pd=10.78 as=0.825 ps=5.33 w=5 l=1
X96 vdd.t118 vdd.t116 vdd.t117 vdd.t96 sky130_fd_pr__pfet_01v8 ad=3.12 pd=16.78 as=0 ps=0 w=8 l=0.5
X97 a_n2650_8322.t27 a_n2848_n452.t72 vdd.t187 vdd.t186 sky130_fd_pr__pfet_01v8 ad=1.485 pd=9.33 as=1.485 ps=9.33 w=9 l=0.5
X98 vdd.t185 a_n2848_n452.t73 a_n2650_8322.t26 vdd.t184 sky130_fd_pr__pfet_01v8 ad=1.485 pd=9.33 as=1.485 ps=9.33 w=9 l=0.5
X99 a_n2848_n452.t56 a_n2848_n452.t55 a_n2472_13878.t17 vdd.t152 sky130_fd_pr__pfet_01v8 ad=1.485 pd=9.33 as=1.485 ps=9.33 w=9 l=0.5
X100 gnd.t288 commonsourceibias.t61 CSoutput.t89 gnd.t214 sky130_fd_pr__nfet_01v8 ad=2.73 pd=14.78 as=1.155 ps=7.33 w=7 l=1
X101 gnd.t125 gnd.t123 gnd.t124 gnd.t77 sky130_fd_pr__nfet_01v8 ad=2.73 pd=14.78 as=0 ps=0 w=7 l=1
X102 vdd.t35 CSoutput.t103 output.t14 gnd.t262 sky130_fd_pr__nfet_01v8 ad=0.825 pd=5.33 as=0.825 ps=5.33 w=5 l=1
X103 a_n3827_n3924.t52 diffpairibias.t23 gnd.t278 gnd.t277 sky130_fd_pr__nfet_01v8 ad=2.73 pd=14.78 as=2.73 ps=14.78 w=7 l=1
X104 gnd.t116 gnd.t114 minus.t4 gnd.t115 sky130_fd_pr__nfet_01v8 ad=0.39 pd=2.78 as=0.165 ps=1.33 w=1 l=0.5
X105 gnd.t122 gnd.t120 gnd.t121 gnd.t84 sky130_fd_pr__nfet_01v8 ad=2.73 pd=14.78 as=0 ps=0 w=7 l=0.9
X106 vdd.t183 a_n2848_n452.t74 a_n2472_13878.t27 vdd.t182 sky130_fd_pr__pfet_01v8 ad=1.485 pd=9.33 as=1.485 ps=9.33 w=9 l=0.5
X107 vdd.t115 vdd.t112 vdd.t114 vdd.t113 sky130_fd_pr__pfet_01v8 ad=3.51 pd=18.78 as=0 ps=0 w=9 l=0.5
X108 gnd.t119 gnd.t117 plus.t0 gnd.t118 sky130_fd_pr__nfet_01v8 ad=0.39 pd=2.78 as=0.165 ps=1.33 w=1 l=0.5
X109 gnd.t113 gnd.t111 gnd.t112 gnd.t45 sky130_fd_pr__nfet_01v8 ad=2.73 pd=14.78 as=0 ps=0 w=7 l=1
X110 a_n6972_8799.t23 a_n2848_n452.t75 a_n2650_8322.t12 vdd.t150 sky130_fd_pr__pfet_01v8 ad=1.485 pd=9.33 as=1.485 ps=9.33 w=9 l=0.5
X111 a_n2650_8322.t25 a_n2848_n452.t76 vdd.t181 vdd.t180 sky130_fd_pr__pfet_01v8 ad=3.51 pd=18.78 as=1.485 ps=9.33 w=9 l=0.5
X112 vdd.t111 vdd.t108 vdd.t110 vdd.t109 sky130_fd_pr__pfet_01v8 ad=3.51 pd=18.78 as=0 ps=0 w=9 l=0.5
X113 a_n2848_n452.t1 minus.t11 a_n3827_n3924.t1 gnd.t11 sky130_fd_pr__nfet_01v8 ad=1.155 pd=7.33 as=1.155 ps=7.33 w=7 l=0.9
X114 a_n6972_8799.t12 plus.t14 a_n3827_n3924.t29 gnd.t157 sky130_fd_pr__nfet_01v8 ad=1.155 pd=7.33 as=2.73 ps=14.78 w=7 l=0.9
X115 vdd.t16 a_n6972_8799.t60 CSoutput.t51 vdd.t15 sky130_fd_pr__pfet_01v8 ad=1.32 pd=8.33 as=1.32 ps=8.33 w=8 l=0.5
X116 a_n2848_n452.t26 a_n2848_n452.t25 a_n2472_13878.t16 vdd.t163 sky130_fd_pr__pfet_01v8 ad=1.485 pd=9.33 as=1.485 ps=9.33 w=9 l=0.5
X117 a_n6972_8799.t19 plus.t15 a_n3827_n3924.t28 gnd.t156 sky130_fd_pr__nfet_01v8 ad=1.155 pd=7.33 as=1.155 ps=7.33 w=7 l=0.9
X118 a_n2848_n452.t5 minus.t12 a_n3827_n3924.t6 gnd.t35 sky130_fd_pr__nfet_01v8 ad=1.155 pd=7.33 as=1.155 ps=7.33 w=7 l=0.9
X119 vdd.t52 CSoutput.t104 output.t13 gnd.t261 sky130_fd_pr__nfet_01v8 ad=0.825 pd=5.33 as=1.95 ps=10.78 w=5 l=1
X120 diffpairibias.t13 diffpairibias.t12 gnd.t273 gnd.t272 sky130_fd_pr__nfet_01v8 ad=2.73 pd=14.78 as=2.73 ps=14.78 w=7 l=1
X121 CSoutput.t50 a_n6972_8799.t61 vdd.t18 vdd.t17 sky130_fd_pr__pfet_01v8 ad=1.32 pd=8.33 as=1.32 ps=8.33 w=8 l=0.5
X122 a_n6972_8799.t34 a_n2848_n452.t77 a_n2650_8322.t11 vdd.t179 sky130_fd_pr__pfet_01v8 ad=1.485 pd=9.33 as=1.485 ps=9.33 w=9 l=0.5
X123 a_n2472_13878.t15 a_n2848_n452.t49 a_n2848_n452.t50 vdd.t178 sky130_fd_pr__pfet_01v8 ad=1.485 pd=9.33 as=1.485 ps=9.33 w=9 l=0.5
X124 CSoutput.t73 commonsourceibias.t62 gnd.t218 gnd.t0 sky130_fd_pr__nfet_01v8 ad=1.155 pd=7.33 as=1.155 ps=7.33 w=7 l=1
X125 commonsourceibias.t29 commonsourceibias.t28 gnd.t243 gnd.t20 sky130_fd_pr__nfet_01v8 ad=1.155 pd=7.33 as=1.155 ps=7.33 w=7 l=1
X126 vdd.t53 CSoutput.t105 output.t12 gnd.t260 sky130_fd_pr__nfet_01v8 ad=0.825 pd=5.33 as=0.825 ps=5.33 w=5 l=1
X127 CSoutput.t15 commonsourceibias.t63 gnd.t187 gnd.t186 sky130_fd_pr__nfet_01v8 ad=1.155 pd=7.33 as=2.73 ps=14.78 w=7 l=1
X128 a_n3827_n3924.t11 minus.t13 a_n2848_n452.t10 gnd.t40 sky130_fd_pr__nfet_01v8 ad=1.155 pd=7.33 as=1.155 ps=7.33 w=7 l=0.9
X129 a_n2472_13878.t14 a_n2848_n452.t37 a_n2848_n452.t38 vdd.t177 sky130_fd_pr__pfet_01v8 ad=1.485 pd=9.33 as=1.485 ps=9.33 w=9 l=0.5
X130 CSoutput.t49 a_n6972_8799.t62 vdd.t196 vdd.t2 sky130_fd_pr__pfet_01v8 ad=1.32 pd=8.33 as=1.32 ps=8.33 w=8 l=0.5
X131 vdd.t176 a_n2848_n452.t78 a_n2650_8322.t24 vdd.t175 sky130_fd_pr__pfet_01v8 ad=1.485 pd=9.33 as=3.51 ps=18.78 w=9 l=0.5
X132 gnd.t250 commonsourceibias.t64 CSoutput.t82 gnd.t233 sky130_fd_pr__nfet_01v8 ad=1.155 pd=7.33 as=1.155 ps=7.33 w=7 l=1
X133 gnd.t173 commonsourceibias.t26 commonsourceibias.t27 gnd.t172 sky130_fd_pr__nfet_01v8 ad=1.155 pd=7.33 as=1.155 ps=7.33 w=7 l=1
X134 a_n2848_n452.t34 a_n2848_n452.t33 a_n2472_13878.t13 vdd.t147 sky130_fd_pr__pfet_01v8 ad=1.485 pd=9.33 as=1.485 ps=9.33 w=9 l=0.5
X135 vdd.t197 a_n6972_8799.t63 CSoutput.t48 vdd.t9 sky130_fd_pr__pfet_01v8 ad=1.32 pd=8.33 as=1.32 ps=8.33 w=8 l=0.5
X136 vdd.t107 vdd.t105 vdd.t106 vdd.t96 sky130_fd_pr__pfet_01v8 ad=3.12 pd=16.78 as=0 ps=0 w=8 l=0.5
X137 a_n3827_n3924.t27 plus.t16 a_n6972_8799.t5 gnd.t41 sky130_fd_pr__nfet_01v8 ad=1.155 pd=7.33 as=1.155 ps=7.33 w=7 l=0.9
X138 a_n2848_n452.t4 minus.t14 a_n3827_n3924.t4 gnd.t14 sky130_fd_pr__nfet_01v8 ad=1.155 pd=7.33 as=1.155 ps=7.33 w=7 l=0.9
X139 commonsourceibias.t25 commonsourceibias.t24 gnd.t16 gnd.t15 sky130_fd_pr__nfet_01v8 ad=1.155 pd=7.33 as=1.155 ps=7.33 w=7 l=1
X140 gnd.t237 commonsourceibias.t22 commonsourceibias.t23 gnd.t233 sky130_fd_pr__nfet_01v8 ad=1.155 pd=7.33 as=1.155 ps=7.33 w=7 l=1
X141 a_n3827_n3924.t53 diffpairibias.t24 gnd.t285 gnd.t284 sky130_fd_pr__nfet_01v8 ad=2.73 pd=14.78 as=2.73 ps=14.78 w=7 l=1
X142 commonsourceibias.t21 commonsourceibias.t20 gnd.t18 gnd.t17 sky130_fd_pr__nfet_01v8 ad=1.155 pd=7.33 as=1.155 ps=7.33 w=7 l=1
X143 a_n6972_8799.t6 plus.t17 a_n3827_n3924.t26 gnd.t155 sky130_fd_pr__nfet_01v8 ad=1.155 pd=7.33 as=1.155 ps=7.33 w=7 l=0.9
X144 gnd.t205 commonsourceibias.t65 CSoutput.t68 gnd.t168 sky130_fd_pr__nfet_01v8 ad=1.155 pd=7.33 as=1.155 ps=7.33 w=7 l=1
X145 a_n3827_n3924.t55 diffpairibias.t25 gnd.t297 gnd.t296 sky130_fd_pr__nfet_01v8 ad=2.73 pd=14.78 as=2.73 ps=14.78 w=7 l=1
X146 gnd.t175 commonsourceibias.t66 CSoutput.t11 gnd.t174 sky130_fd_pr__nfet_01v8 ad=1.155 pd=7.33 as=1.155 ps=7.33 w=7 l=1
X147 a_n2472_13878.t12 a_n2848_n452.t39 a_n2848_n452.t40 vdd.t151 sky130_fd_pr__pfet_01v8 ad=1.485 pd=9.33 as=1.485 ps=9.33 w=9 l=0.5
X148 gnd.t225 commonsourceibias.t67 CSoutput.t77 gnd.t214 sky130_fd_pr__nfet_01v8 ad=2.73 pd=14.78 as=1.155 ps=7.33 w=7 l=1
X149 a_n6972_8799.t42 plus.t18 a_n3827_n3924.t25 gnd.t12 sky130_fd_pr__nfet_01v8 ad=1.155 pd=7.33 as=1.155 ps=7.33 w=7 l=0.9
X150 vdd.t104 vdd.t102 vdd.t103 vdd.t75 sky130_fd_pr__pfet_01v8 ad=3.51 pd=18.78 as=0 ps=0 w=9 l=0.5
X151 a_n2650_8322.t10 a_n2848_n452.t79 a_n6972_8799.t36 vdd.t174 sky130_fd_pr__pfet_01v8 ad=1.485 pd=9.33 as=1.485 ps=9.33 w=9 l=0.5
X152 commonsourceibias.t19 commonsourceibias.t18 gnd.t192 gnd.t4 sky130_fd_pr__nfet_01v8 ad=1.155 pd=7.33 as=1.155 ps=7.33 w=7 l=1
X153 CSoutput.t47 a_n6972_8799.t64 vdd.t206 vdd.t7 sky130_fd_pr__pfet_01v8 ad=1.32 pd=8.33 as=3.12 ps=16.78 w=8 l=0.5
X154 minus.t3 gnd.t108 gnd.t110 gnd.t109 sky130_fd_pr__nfet_01v8 ad=0.165 pd=1.33 as=0.165 ps=1.33 w=1 l=0.5
X155 gnd.t283 commonsourceibias.t68 CSoutput.t88 gnd.t206 sky130_fd_pr__nfet_01v8 ad=1.155 pd=7.33 as=1.155 ps=7.33 w=7 l=1
X156 gnd.t107 gnd.t104 gnd.t106 gnd.t105 sky130_fd_pr__nfet_01v8 ad=1.95 pd=10.78 as=0 ps=0 w=5 l=1
X157 a_n2472_13878.t1 a_n2848_n452.t80 vdd.t173 vdd.t172 sky130_fd_pr__pfet_01v8 ad=1.485 pd=9.33 as=1.485 ps=9.33 w=9 l=0.5
X158 CSoutput.t79 commonsourceibias.t69 gnd.t235 gnd.t216 sky130_fd_pr__nfet_01v8 ad=1.155 pd=7.33 as=1.155 ps=7.33 w=7 l=1
X159 diffpairibias.t11 diffpairibias.t10 gnd.t247 gnd.t246 sky130_fd_pr__nfet_01v8 ad=2.73 pd=14.78 as=2.73 ps=14.78 w=7 l=1
X160 vdd.t171 a_n2848_n452.t81 a_n2472_13878.t0 vdd.t170 sky130_fd_pr__pfet_01v8 ad=1.485 pd=9.33 as=1.485 ps=9.33 w=9 l=0.5
X161 a_n2848_n452.t3 minus.t15 a_n3827_n3924.t3 gnd.t13 sky130_fd_pr__nfet_01v8 ad=1.155 pd=7.33 as=1.155 ps=7.33 w=7 l=0.9
X162 vdd.t207 a_n6972_8799.t65 CSoutput.t46 vdd.t9 sky130_fd_pr__pfet_01v8 ad=1.32 pd=8.33 as=1.32 ps=8.33 w=8 l=0.5
X163 CSoutput.t45 a_n6972_8799.t66 vdd.t3 vdd.t2 sky130_fd_pr__pfet_01v8 ad=1.32 pd=8.33 as=1.32 ps=8.33 w=8 l=0.5
X164 a_n3827_n3924.t24 plus.t19 a_n6972_8799.t1 gnd.t43 sky130_fd_pr__nfet_01v8 ad=1.155 pd=7.33 as=1.155 ps=7.33 w=7 l=0.9
X165 gnd.t230 commonsourceibias.t16 commonsourceibias.t17 gnd.t168 sky130_fd_pr__nfet_01v8 ad=1.155 pd=7.33 as=1.155 ps=7.33 w=7 l=1
X166 commonsourceibias.t15 commonsourceibias.t14 gnd.t275 gnd.t186 sky130_fd_pr__nfet_01v8 ad=1.155 pd=7.33 as=2.73 ps=14.78 w=7 l=1
X167 a_n2472_13878.t11 a_n2848_n452.t35 a_n2848_n452.t36 vdd.t169 sky130_fd_pr__pfet_01v8 ad=1.485 pd=9.33 as=1.485 ps=9.33 w=9 l=0.5
X168 output.t1 outputibias.t8 gnd.t171 gnd.t170 sky130_fd_pr__nfet_01v8 ad=2.34 pd=12.78 as=2.34 ps=12.78 w=6 l=2
X169 diffpairibias.t9 diffpairibias.t8 gnd.t7 gnd.t6 sky130_fd_pr__nfet_01v8 ad=2.73 pd=14.78 as=2.73 ps=14.78 w=7 l=1
X170 CSoutput.t106 a_n2650_8322.t31 sky130_fd_pr__cap_mim_m3_1 l=12 w=12
X171 a_n2650_8322.t9 a_n2848_n452.t82 a_n6972_8799.t25 vdd.t140 sky130_fd_pr__pfet_01v8 ad=1.485 pd=9.33 as=1.485 ps=9.33 w=9 l=0.5
X172 a_n3827_n3924.t40 minus.t16 a_n2848_n452.t15 gnd.t152 sky130_fd_pr__nfet_01v8 ad=1.155 pd=7.33 as=1.155 ps=7.33 w=7 l=0.9
X173 CSoutput.t16 commonsourceibias.t70 gnd.t188 gnd.t24 sky130_fd_pr__nfet_01v8 ad=1.155 pd=7.33 as=2.73 ps=14.78 w=7 l=1
X174 output.t3 outputibias.t9 gnd.t184 gnd.t183 sky130_fd_pr__nfet_01v8 ad=2.34 pd=12.78 as=2.34 ps=12.78 w=6 l=2
X175 output.t2 outputibias.t10 gnd.t178 gnd.t177 sky130_fd_pr__nfet_01v8 ad=2.34 pd=12.78 as=2.34 ps=12.78 w=6 l=2
X176 gnd.t189 commonsourceibias.t12 commonsourceibias.t13 gnd.t164 sky130_fd_pr__nfet_01v8 ad=1.155 pd=7.33 as=1.155 ps=7.33 w=7 l=1
X177 a_n2472_13878.t10 a_n2848_n452.t27 a_n2848_n452.t28 vdd.t168 sky130_fd_pr__pfet_01v8 ad=1.485 pd=9.33 as=3.51 ps=18.78 w=9 l=0.5
X178 vdd.t5 a_n6972_8799.t67 CSoutput.t44 vdd.t4 sky130_fd_pr__pfet_01v8 ad=1.32 pd=8.33 as=1.32 ps=8.33 w=8 l=0.5
X179 CSoutput.t43 a_n6972_8799.t68 vdd.t12 vdd.t11 sky130_fd_pr__pfet_01v8 ad=1.32 pd=8.33 as=1.32 ps=8.33 w=8 l=0.5
X180 diffpairibias.t7 diffpairibias.t6 gnd.t28 gnd.t27 sky130_fd_pr__nfet_01v8 ad=2.73 pd=14.78 as=2.73 ps=14.78 w=7 l=1
X181 vdd.t167 a_n2848_n452.t83 a_n2650_8322.t23 vdd.t166 sky130_fd_pr__pfet_01v8 ad=1.485 pd=9.33 as=3.51 ps=18.78 w=9 l=0.5
X182 CSoutput.t92 commonsourceibias.t71 gnd.t292 gnd.t186 sky130_fd_pr__nfet_01v8 ad=1.155 pd=7.33 as=2.73 ps=14.78 w=7 l=1
X183 a_n3827_n3924.t49 minus.t17 a_n2848_n452.t20 gnd.t160 sky130_fd_pr__nfet_01v8 ad=1.155 pd=7.33 as=1.155 ps=7.33 w=7 l=0.9
X184 a_n3827_n3924.t23 plus.t20 a_n6972_8799.t14 gnd.t154 sky130_fd_pr__nfet_01v8 ad=2.73 pd=14.78 as=1.155 ps=7.33 w=7 l=0.9
X185 CSoutput.t107 a_n2650_8322.t30 sky130_fd_pr__cap_mim_m3_1 l=12 w=12
X186 output.t0 outputibias.t11 gnd.t9 gnd.t8 sky130_fd_pr__nfet_01v8 ad=2.34 pd=12.78 as=2.34 ps=12.78 w=6 l=2
X187 gnd.t234 commonsourceibias.t72 CSoutput.t78 gnd.t233 sky130_fd_pr__nfet_01v8 ad=1.155 pd=7.33 as=1.155 ps=7.33 w=7 l=1
X188 a_n3827_n3924.t7 minus.t18 a_n2848_n452.t6 gnd.t36 sky130_fd_pr__nfet_01v8 ad=1.155 pd=7.33 as=1.155 ps=7.33 w=7 l=0.9
X189 a_n2472_13878.t25 a_n2848_n452.t84 vdd.t165 vdd.t164 sky130_fd_pr__pfet_01v8 ad=3.51 pd=18.78 as=1.485 ps=9.33 w=9 l=0.5
X190 CSoutput.t70 commonsourceibias.t73 gnd.t211 gnd.t208 sky130_fd_pr__nfet_01v8 ad=1.155 pd=7.33 as=1.155 ps=7.33 w=7 l=1
X191 gnd.t103 gnd.t100 gnd.t102 gnd.t101 sky130_fd_pr__nfet_01v8 ad=2.73 pd=14.78 as=0 ps=0 w=7 l=1
X192 vdd.t14 a_n6972_8799.t69 CSoutput.t42 vdd.t13 sky130_fd_pr__pfet_01v8 ad=3.12 pd=16.78 as=1.32 ps=8.33 w=8 l=0.5
X193 gnd.t99 gnd.t97 gnd.t98 gnd.t77 sky130_fd_pr__nfet_01v8 ad=2.73 pd=14.78 as=0 ps=0 w=7 l=1
X194 a_n2650_8322.t8 a_n2848_n452.t85 a_n6972_8799.t31 vdd.t163 sky130_fd_pr__pfet_01v8 ad=1.485 pd=9.33 as=1.485 ps=9.33 w=9 l=0.5
X195 vdd.t162 a_n2848_n452.t86 a_n2650_8322.t22 vdd.t161 sky130_fd_pr__pfet_01v8 ad=1.485 pd=9.33 as=1.485 ps=9.33 w=9 l=0.5
X196 minus.t2 gnd.t94 gnd.t96 gnd.t95 sky130_fd_pr__nfet_01v8 ad=0.165 pd=1.33 as=0.165 ps=1.33 w=1 l=0.5
X197 a_n3827_n3924.t41 diffpairibias.t26 gnd.t182 gnd.t181 sky130_fd_pr__nfet_01v8 ad=2.73 pd=14.78 as=2.73 ps=14.78 w=7 l=1
X198 CSoutput.t41 a_n6972_8799.t70 vdd.t204 vdd.t60 sky130_fd_pr__pfet_01v8 ad=1.32 pd=8.33 as=1.32 ps=8.33 w=8 l=0.5
X199 vdd.t101 vdd.t99 vdd.t100 vdd.t67 sky130_fd_pr__pfet_01v8 ad=3.12 pd=16.78 as=0 ps=0 w=8 l=0.5
X200 vdd.t98 vdd.t95 vdd.t97 vdd.t96 sky130_fd_pr__pfet_01v8 ad=3.12 pd=16.78 as=0 ps=0 w=8 l=0.5
X201 a_n6972_8799.t10 plus.t21 a_n3827_n3924.t22 gnd.t10 sky130_fd_pr__nfet_01v8 ad=1.155 pd=7.33 as=1.155 ps=7.33 w=7 l=0.9
X202 a_n2848_n452.t7 minus.t19 a_n3827_n3924.t8 gnd.t37 sky130_fd_pr__nfet_01v8 ad=1.155 pd=7.33 as=1.155 ps=7.33 w=7 l=0.9
X203 gnd.t169 commonsourceibias.t74 CSoutput.t10 gnd.t168 sky130_fd_pr__nfet_01v8 ad=1.155 pd=7.33 as=1.155 ps=7.33 w=7 l=1
X204 vdd.t205 a_n6972_8799.t71 CSoutput.t40 vdd.t28 sky130_fd_pr__pfet_01v8 ad=1.32 pd=8.33 as=1.32 ps=8.33 w=8 l=0.5
X205 vdd.t192 a_n6972_8799.t72 CSoutput.t39 vdd.t19 sky130_fd_pr__pfet_01v8 ad=1.32 pd=8.33 as=1.32 ps=8.33 w=8 l=0.5
X206 vdd.t94 vdd.t92 vdd.t93 vdd.t71 sky130_fd_pr__pfet_01v8 ad=3.12 pd=16.78 as=0 ps=0 w=8 l=0.5
X207 a_n3827_n3924.t46 minus.t20 a_n2848_n452.t18 gnd.t159 sky130_fd_pr__nfet_01v8 ad=2.73 pd=14.78 as=1.155 ps=7.33 w=7 l=0.9
X208 output.t11 CSoutput.t108 vdd.t23 gnd.t259 sky130_fd_pr__nfet_01v8 ad=0.825 pd=5.33 as=0.825 ps=5.33 w=5 l=1
X209 CSoutput.t71 commonsourceibias.t75 gnd.t213 gnd.t212 sky130_fd_pr__nfet_01v8 ad=1.155 pd=7.33 as=1.155 ps=7.33 w=7 l=1
X210 gnd.t26 commonsourceibias.t76 CSoutput.t6 gnd.t2 sky130_fd_pr__nfet_01v8 ad=2.73 pd=14.78 as=1.155 ps=7.33 w=7 l=1
X211 vdd.t91 vdd.t88 vdd.t90 vdd.t89 sky130_fd_pr__pfet_01v8 ad=3.51 pd=18.78 as=0 ps=0 w=9 l=0.5
X212 a_n3827_n3924.t9 minus.t21 a_n2848_n452.t8 gnd.t38 sky130_fd_pr__nfet_01v8 ad=1.155 pd=7.33 as=1.155 ps=7.33 w=7 l=0.9
X213 CSoutput.t38 a_n6972_8799.t73 vdd.t193 vdd.t11 sky130_fd_pr__pfet_01v8 ad=1.32 pd=8.33 as=1.32 ps=8.33 w=8 l=0.5
X214 a_n2472_13878.t9 a_n2848_n452.t57 a_n2848_n452.t58 vdd.t155 sky130_fd_pr__pfet_01v8 ad=1.485 pd=9.33 as=1.485 ps=9.33 w=9 l=0.5
X215 gnd.t291 commonsourceibias.t77 CSoutput.t91 gnd.t206 sky130_fd_pr__nfet_01v8 ad=1.155 pd=7.33 as=1.155 ps=7.33 w=7 l=1
X216 a_n3827_n3924.t13 minus.t22 a_n2848_n452.t12 gnd.t42 sky130_fd_pr__nfet_01v8 ad=1.155 pd=7.33 as=1.155 ps=7.33 w=7 l=0.9
X217 vdd.t87 vdd.t85 vdd.t86 vdd.t71 sky130_fd_pr__pfet_01v8 ad=3.12 pd=16.78 as=0 ps=0 w=8 l=0.5
X218 a_n2650_8322.t7 a_n2848_n452.t87 a_n6972_8799.t30 vdd.t160 sky130_fd_pr__pfet_01v8 ad=1.485 pd=9.33 as=1.485 ps=9.33 w=9 l=0.5
X219 CSoutput.t72 commonsourceibias.t78 gnd.t217 gnd.t216 sky130_fd_pr__nfet_01v8 ad=1.155 pd=7.33 as=1.155 ps=7.33 w=7 l=1
X220 diffpairibias.t5 diffpairibias.t4 gnd.t245 gnd.t244 sky130_fd_pr__nfet_01v8 ad=2.73 pd=14.78 as=2.73 ps=14.78 w=7 l=1
X221 gnd.t224 commonsourceibias.t79 CSoutput.t76 gnd.t223 sky130_fd_pr__nfet_01v8 ad=1.155 pd=7.33 as=1.155 ps=7.33 w=7 l=1
X222 commonsourceibias.t11 commonsourceibias.t10 gnd.t279 gnd.t216 sky130_fd_pr__nfet_01v8 ad=1.155 pd=7.33 as=1.155 ps=7.33 w=7 l=1
X223 CSoutput.t37 a_n6972_8799.t74 vdd.t27 vdd.t17 sky130_fd_pr__pfet_01v8 ad=1.32 pd=8.33 as=1.32 ps=8.33 w=8 l=0.5
X224 CSoutput.t80 commonsourceibias.t80 gnd.t236 gnd.t15 sky130_fd_pr__nfet_01v8 ad=1.155 pd=7.33 as=1.155 ps=7.33 w=7 l=1
X225 vdd.t29 a_n6972_8799.t75 CSoutput.t36 vdd.t28 sky130_fd_pr__pfet_01v8 ad=1.32 pd=8.33 as=1.32 ps=8.33 w=8 l=0.5
X226 a_n3827_n3924.t5 diffpairibias.t27 gnd.t32 gnd.t31 sky130_fd_pr__nfet_01v8 ad=2.73 pd=14.78 as=2.73 ps=14.78 w=7 l=1
X227 vdd.t59 a_n6972_8799.t76 CSoutput.t35 vdd.t13 sky130_fd_pr__pfet_01v8 ad=3.12 pd=16.78 as=1.32 ps=8.33 w=8 l=0.5
X228 a_n2650_8322.t21 a_n2848_n452.t88 vdd.t159 vdd.t158 sky130_fd_pr__pfet_01v8 ad=3.51 pd=18.78 as=1.485 ps=9.33 w=9 l=0.5
X229 gnd.t93 gnd.t90 gnd.t92 gnd.t91 sky130_fd_pr__nfet_01v8 ad=2.73 pd=14.78 as=0 ps=0 w=7 l=0.9
X230 a_n3827_n3924.t57 minus.t23 a_n2848_n452.t63 gnd.t161 sky130_fd_pr__nfet_01v8 ad=1.155 pd=7.33 as=1.155 ps=7.33 w=7 l=0.9
X231 CSoutput.t5 commonsourceibias.t81 gnd.t25 gnd.t24 sky130_fd_pr__nfet_01v8 ad=1.155 pd=7.33 as=2.73 ps=14.78 w=7 l=1
X232 vdd.t157 a_n2848_n452.t89 a_n2472_13878.t4 vdd.t156 sky130_fd_pr__pfet_01v8 ad=1.485 pd=9.33 as=3.51 ps=18.78 w=9 l=0.5
X233 gnd.t274 commonsourceibias.t8 commonsourceibias.t9 gnd.t190 sky130_fd_pr__nfet_01v8 ad=1.155 pd=7.33 as=1.155 ps=7.33 w=7 l=1
X234 CSoutput.t34 a_n6972_8799.t77 vdd.t61 vdd.t60 sky130_fd_pr__pfet_01v8 ad=1.32 pd=8.33 as=1.32 ps=8.33 w=8 l=0.5
X235 vdd.t84 vdd.t82 vdd.t83 vdd.t67 sky130_fd_pr__pfet_01v8 ad=3.12 pd=16.78 as=0 ps=0 w=8 l=0.5
X236 CSoutput.t33 a_n6972_8799.t78 vdd.t41 vdd.t40 sky130_fd_pr__pfet_01v8 ad=1.32 pd=8.33 as=1.32 ps=8.33 w=8 l=0.5
X237 gnd.t195 commonsourceibias.t82 CSoutput.t19 gnd.t172 sky130_fd_pr__nfet_01v8 ad=1.155 pd=7.33 as=1.155 ps=7.33 w=7 l=1
X238 CSoutput.t86 commonsourceibias.t83 gnd.t270 gnd.t4 sky130_fd_pr__nfet_01v8 ad=1.155 pd=7.33 as=1.155 ps=7.33 w=7 l=1
X239 output.t10 CSoutput.t109 vdd.t24 gnd.t258 sky130_fd_pr__nfet_01v8 ad=0.825 pd=5.33 as=0.825 ps=5.33 w=5 l=1
X240 vdd.t42 a_n6972_8799.t79 CSoutput.t32 vdd.t28 sky130_fd_pr__pfet_01v8 ad=1.32 pd=8.33 as=1.32 ps=8.33 w=8 l=0.5
X241 vdd.t20 a_n6972_8799.t80 CSoutput.t31 vdd.t19 sky130_fd_pr__pfet_01v8 ad=1.32 pd=8.33 as=1.32 ps=8.33 w=8 l=0.5
X242 gnd.t89 gnd.t87 plus.t2 gnd.t88 sky130_fd_pr__nfet_01v8 ad=0.165 pd=1.33 as=0.165 ps=1.33 w=1 l=0.5
X243 gnd.t86 gnd.t83 gnd.t85 gnd.t84 sky130_fd_pr__nfet_01v8 ad=2.73 pd=14.78 as=0 ps=0 w=7 l=0.9
X244 a_n6972_8799.t26 a_n2848_n452.t90 a_n2650_8322.t6 vdd.t155 sky130_fd_pr__pfet_01v8 ad=1.485 pd=9.33 as=1.485 ps=9.33 w=9 l=0.5
X245 a_n2650_8322.t5 a_n2848_n452.t91 a_n6972_8799.t24 vdd.t148 sky130_fd_pr__pfet_01v8 ad=1.485 pd=9.33 as=1.485 ps=9.33 w=9 l=0.5
X246 CSoutput.t69 commonsourceibias.t84 gnd.t210 gnd.t208 sky130_fd_pr__nfet_01v8 ad=1.155 pd=7.33 as=1.155 ps=7.33 w=7 l=1
X247 commonsourceibias.t7 commonsourceibias.t6 gnd.t200 gnd.t24 sky130_fd_pr__nfet_01v8 ad=1.155 pd=7.33 as=2.73 ps=14.78 w=7 l=1
X248 a_n2472_13878.t2 a_n2848_n452.t92 vdd.t154 vdd.t153 sky130_fd_pr__pfet_01v8 ad=3.51 pd=18.78 as=1.485 ps=9.33 w=9 l=0.5