* NGSPICE file created from opamp35.ext - technology: sky130A

.subckt opamp35 gnd CSoutput output vdd plus minus commonsourceibias outputibias diffpairibias
X0 CSoutput.t219 a_n8300_8799.t36 vdd.t296 vdd.t240 sky130_fd_pr__pfet_01v8 ad=1.32 pd=8.33 as=1.32 ps=8.33 w=8 l=0.5
X1 gnd.t381 commonsourceibias.t56 commonsourceibias.t57 gnd.t283 sky130_fd_pr__nfet_01v8 ad=1.155 pd=7.33 as=1.155 ps=7.33 w=7 l=1
X2 a_n8300_8799.t1 plus.t5 a_n3827_n3924.t26 gnd.t4 sky130_fd_pr__nfet_01v8 ad=1.155 pd=7.33 as=1.155 ps=7.33 w=7 l=0.7
X3 a_n2140_13878.t23 a_n2318_13878.t20 a_n2318_13878.t21 vdd.t84 sky130_fd_pr__pfet_01v8 ad=1.485 pd=9.33 as=1.485 ps=9.33 w=9 l=0.5
X4 a_n2140_13878.t7 a_n2318_13878.t52 vdd.t123 vdd.t122 sky130_fd_pr__pfet_01v8 ad=1.485 pd=9.33 as=1.485 ps=9.33 w=9 l=0.5
X5 gnd.t380 commonsourceibias.t80 CSoutput.t45 gnd.t206 sky130_fd_pr__nfet_01v8 ad=1.155 pd=7.33 as=1.155 ps=7.33 w=7 l=1
X6 gnd.t379 commonsourceibias.t81 CSoutput.t36 gnd.t233 sky130_fd_pr__nfet_01v8 ad=1.155 pd=7.33 as=1.155 ps=7.33 w=7 l=1
X7 CSoutput.t54 commonsourceibias.t82 gnd.t378 gnd.t246 sky130_fd_pr__nfet_01v8 ad=1.155 pd=7.33 as=1.155 ps=7.33 w=7 l=1
X8 vdd.t295 a_n8300_8799.t37 CSoutput.t218 vdd.t235 sky130_fd_pr__pfet_01v8 ad=1.32 pd=8.33 as=1.32 ps=8.33 w=8 l=0.5
X9 commonsourceibias.t55 commonsourceibias.t54 gnd.t377 gnd.t213 sky130_fd_pr__nfet_01v8 ad=1.155 pd=7.33 as=1.155 ps=7.33 w=7 l=1
X10 gnd.t376 commonsourceibias.t83 CSoutput.t35 gnd.t192 sky130_fd_pr__nfet_01v8 ad=1.155 pd=7.33 as=1.155 ps=7.33 w=7 l=1
X11 CSoutput.t217 a_n8300_8799.t38 vdd.t294 vdd.t158 sky130_fd_pr__pfet_01v8 ad=1.32 pd=8.33 as=3.12 ps=16.78 w=8 l=0.5
X12 gnd.t143 gnd.t141 plus.t4 gnd.t142 sky130_fd_pr__nfet_01v8 ad=0.165 pd=1.33 as=0.165 ps=1.33 w=1 l=0.5
X13 gnd.t375 commonsourceibias.t52 commonsourceibias.t53 gnd.t202 sky130_fd_pr__nfet_01v8 ad=1.155 pd=7.33 as=1.155 ps=7.33 w=7 l=1
X14 a_n3827_n3924.t6 diffpairibias.t20 gnd.t13 gnd.t12 sky130_fd_pr__nfet_01v8 ad=2.73 pd=14.78 as=2.73 ps=14.78 w=7 l=1
X15 CSoutput.t34 commonsourceibias.t84 gnd.t374 gnd.t322 sky130_fd_pr__nfet_01v8 ad=1.155 pd=7.33 as=1.155 ps=7.33 w=7 l=1
X16 CSoutput.t216 a_n8300_8799.t39 vdd.t293 vdd.t151 sky130_fd_pr__pfet_01v8 ad=1.32 pd=8.33 as=1.32 ps=8.33 w=8 l=0.5
X17 a_n3827_n3924.t25 plus.t6 a_n8300_8799.t11 gnd.t10 sky130_fd_pr__nfet_01v8 ad=1.155 pd=7.33 as=1.155 ps=7.33 w=7 l=0.7
X18 gnd.t373 commonsourceibias.t50 commonsourceibias.t51 gnd.t182 sky130_fd_pr__nfet_01v8 ad=1.155 pd=7.33 as=1.155 ps=7.33 w=7 l=1
X19 a_n3827_n3924.t29 minus.t5 a_n2318_13878.t5 gnd.t22 sky130_fd_pr__nfet_01v8 ad=2.73 pd=14.78 as=1.155 ps=7.33 w=7 l=0.7
X20 a_n2318_8322.t23 a_n2318_13878.t53 a_n8300_8799.t30 vdd.t124 sky130_fd_pr__pfet_01v8 ad=1.485 pd=9.33 as=1.485 ps=9.33 w=9 l=0.5
X21 commonsourceibias.t25 commonsourceibias.t24 gnd.t361 gnd.t235 sky130_fd_pr__nfet_01v8 ad=1.155 pd=7.33 as=1.155 ps=7.33 w=7 l=1
X22 gnd.t372 commonsourceibias.t85 CSoutput.t19 gnd.t275 sky130_fd_pr__nfet_01v8 ad=1.155 pd=7.33 as=1.155 ps=7.33 w=7 l=1
X23 CSoutput.t215 a_n8300_8799.t40 vdd.t292 vdd.t191 sky130_fd_pr__pfet_01v8 ad=1.32 pd=8.33 as=1.32 ps=8.33 w=8 l=0.5
X24 vdd.t291 a_n8300_8799.t41 CSoutput.t214 vdd.t228 sky130_fd_pr__pfet_01v8 ad=1.32 pd=8.33 as=1.32 ps=8.33 w=8 l=0.5
X25 a_n2318_13878.t9 minus.t6 a_n3827_n3924.t33 gnd.t147 sky130_fd_pr__nfet_01v8 ad=1.155 pd=7.33 as=1.155 ps=7.33 w=7 l=0.7
X26 gnd.t140 gnd.t138 gnd.t139 gnd.t68 sky130_fd_pr__nfet_01v8 ad=2.73 pd=14.78 as=0 ps=0 w=7 l=1
X27 a_n8300_8799.t17 a_n2318_13878.t54 a_n2318_8322.t22 vdd.t97 sky130_fd_pr__pfet_01v8 ad=1.485 pd=9.33 as=3.51 ps=18.78 w=9 l=0.5
X28 CSoutput.t16 commonsourceibias.t86 gnd.t371 gnd.t252 sky130_fd_pr__nfet_01v8 ad=1.155 pd=7.33 as=1.155 ps=7.33 w=7 l=1
X29 vdd.t290 a_n8300_8799.t42 CSoutput.t213 vdd.t145 sky130_fd_pr__pfet_01v8 ad=1.32 pd=8.33 as=1.32 ps=8.33 w=8 l=0.5
X30 vdd.t289 a_n8300_8799.t43 CSoutput.t212 vdd.t253 sky130_fd_pr__pfet_01v8 ad=1.32 pd=8.33 as=1.32 ps=8.33 w=8 l=0.5
X31 gnd.t137 gnd.t134 gnd.t136 gnd.t135 sky130_fd_pr__nfet_01v8 ad=2.34 pd=12.78 as=0 ps=0 w=6 l=2
X32 CSoutput.t29 commonsourceibias.t87 gnd.t370 gnd.t198 sky130_fd_pr__nfet_01v8 ad=1.155 pd=7.33 as=1.155 ps=7.33 w=7 l=1
X33 a_n2318_13878.t46 minus.t7 a_n3827_n3924.t43 gnd.t144 sky130_fd_pr__nfet_01v8 ad=1.155 pd=7.33 as=1.155 ps=7.33 w=7 l=0.7
X34 CSoutput.t211 a_n8300_8799.t44 vdd.t288 vdd.t197 sky130_fd_pr__pfet_01v8 ad=1.32 pd=8.33 as=1.32 ps=8.33 w=8 l=0.5
X35 vdd.t287 a_n8300_8799.t45 CSoutput.t210 vdd.t250 sky130_fd_pr__pfet_01v8 ad=1.32 pd=8.33 as=1.32 ps=8.33 w=8 l=0.5
X36 commonsourceibias.t33 commonsourceibias.t32 gnd.t368 gnd.t281 sky130_fd_pr__nfet_01v8 ad=1.155 pd=7.33 as=1.155 ps=7.33 w=7 l=1
X37 a_n8300_8799.t18 a_n2318_13878.t55 a_n2318_8322.t21 vdd.t86 sky130_fd_pr__pfet_01v8 ad=1.485 pd=9.33 as=3.51 ps=18.78 w=9 l=0.5
X38 gnd.t369 commonsourceibias.t88 CSoutput.t20 gnd.t196 sky130_fd_pr__nfet_01v8 ad=1.155 pd=7.33 as=1.155 ps=7.33 w=7 l=1
X39 gnd.t133 gnd.t131 gnd.t132 gnd.t54 sky130_fd_pr__nfet_01v8 ad=2.73 pd=14.78 as=0 ps=0 w=7 l=1
X40 CSoutput.t15 commonsourceibias.t89 gnd.t367 gnd.t221 sky130_fd_pr__nfet_01v8 ad=1.155 pd=7.33 as=1.155 ps=7.33 w=7 l=1
X41 a_n3827_n3924.t5 minus.t8 a_n2318_13878.t3 gnd.t11 sky130_fd_pr__nfet_01v8 ad=2.73 pd=14.78 as=1.155 ps=7.33 w=7 l=0.7
X42 CSoutput.t28 commonsourceibias.t90 gnd.t366 gnd.t322 sky130_fd_pr__nfet_01v8 ad=1.155 pd=7.33 as=1.155 ps=7.33 w=7 l=1
X43 vdd.t83 vdd.t81 vdd.t82 vdd.t9 sky130_fd_pr__pfet_01v8 ad=3.51 pd=18.78 as=0 ps=0 w=9 l=0.5
X44 gnd.t365 commonsourceibias.t30 commonsourceibias.t31 gnd.t275 sky130_fd_pr__nfet_01v8 ad=1.155 pd=7.33 as=1.155 ps=7.33 w=7 l=1
X45 outputibias.t7 outputibias.t6 gnd.t403 gnd.t402 sky130_fd_pr__nfet_01v8 ad=2.34 pd=12.78 as=2.34 ps=12.78 w=6 l=2
X46 gnd.t364 commonsourceibias.t28 commonsourceibias.t29 gnd.t188 sky130_fd_pr__nfet_01v8 ad=2.73 pd=14.78 as=1.155 ps=7.33 w=7 l=1
X47 CSoutput.t79 commonsourceibias.t91 gnd.t363 gnd.t286 sky130_fd_pr__nfet_01v8 ad=1.155 pd=7.33 as=1.155 ps=7.33 w=7 l=1
X48 CSoutput.t209 a_n8300_8799.t46 vdd.t286 vdd.t240 sky130_fd_pr__pfet_01v8 ad=1.32 pd=8.33 as=1.32 ps=8.33 w=8 l=0.5
X49 CSoutput.t208 a_n8300_8799.t47 vdd.t281 vdd.t186 sky130_fd_pr__pfet_01v8 ad=1.32 pd=8.33 as=3.12 ps=16.78 w=8 l=0.5
X50 a_n3827_n3924.t3 diffpairibias.t21 gnd.t9 gnd.t8 sky130_fd_pr__nfet_01v8 ad=2.73 pd=14.78 as=2.73 ps=14.78 w=7 l=1
X51 commonsourceibias.t27 commonsourceibias.t26 gnd.t362 gnd.t184 sky130_fd_pr__nfet_01v8 ad=1.155 pd=7.33 as=1.155 ps=7.33 w=7 l=1
X52 CSoutput.t207 a_n8300_8799.t48 vdd.t285 vdd.t207 sky130_fd_pr__pfet_01v8 ad=1.32 pd=8.33 as=1.32 ps=8.33 w=8 l=0.5
X53 vdd.t284 a_n8300_8799.t49 CSoutput.t206 vdd.t145 sky130_fd_pr__pfet_01v8 ad=1.32 pd=8.33 as=1.32 ps=8.33 w=8 l=0.5
X54 CSoutput.t27 commonsourceibias.t92 gnd.t360 gnd.t286 sky130_fd_pr__nfet_01v8 ad=1.155 pd=7.33 as=1.155 ps=7.33 w=7 l=1
X55 CSoutput.t205 a_n8300_8799.t50 vdd.t283 vdd.t151 sky130_fd_pr__pfet_01v8 ad=1.32 pd=8.33 as=1.32 ps=8.33 w=8 l=0.5
X56 a_n3827_n3924.t24 plus.t7 a_n8300_8799.t22 gnd.t159 sky130_fd_pr__nfet_01v8 ad=1.155 pd=7.33 as=1.155 ps=7.33 w=7 l=0.7
X57 gnd.t359 commonsourceibias.t78 commonsourceibias.t79 gnd.t269 sky130_fd_pr__nfet_01v8 ad=1.155 pd=7.33 as=1.155 ps=7.33 w=7 l=1
X58 CSoutput.t78 commonsourceibias.t93 gnd.t358 gnd.t200 sky130_fd_pr__nfet_01v8 ad=1.155 pd=7.33 as=2.73 ps=14.78 w=7 l=1
X59 a_n2140_13878.t22 a_n2318_13878.t10 a_n2318_13878.t11 vdd.t85 sky130_fd_pr__pfet_01v8 ad=1.485 pd=9.33 as=1.485 ps=9.33 w=9 l=0.5
X60 a_n2318_13878.t27 a_n2318_13878.t26 a_n2140_13878.t21 vdd.t116 sky130_fd_pr__pfet_01v8 ad=1.485 pd=9.33 as=1.485 ps=9.33 w=9 l=0.5
X61 CSoutput.t204 a_n8300_8799.t51 vdd.t282 vdd.t191 sky130_fd_pr__pfet_01v8 ad=1.32 pd=8.33 as=1.32 ps=8.33 w=8 l=0.5
X62 a_n8300_8799.t8 plus.t8 a_n3827_n3924.t23 gnd.t0 sky130_fd_pr__nfet_01v8 ad=1.155 pd=7.33 as=1.155 ps=7.33 w=7 l=0.7
X63 vdd.t80 vdd.t78 vdd.t79 vdd.t55 sky130_fd_pr__pfet_01v8 ad=3.51 pd=18.78 as=0 ps=0 w=9 l=0.5
X64 vdd.t280 a_n8300_8799.t52 CSoutput.t203 vdd.t228 sky130_fd_pr__pfet_01v8 ad=1.32 pd=8.33 as=1.32 ps=8.33 w=8 l=0.5
X65 CSoutput.t63 commonsourceibias.t94 gnd.t357 gnd.t215 sky130_fd_pr__nfet_01v8 ad=1.155 pd=7.33 as=2.73 ps=14.78 w=7 l=1
X66 vdd.t134 CSoutput.t240 output.t19 gnd.t397 sky130_fd_pr__nfet_01v8 ad=0.825 pd=5.33 as=0.825 ps=5.33 w=5 l=1
X67 gnd.t356 commonsourceibias.t95 CSoutput.t62 gnd.t233 sky130_fd_pr__nfet_01v8 ad=1.155 pd=7.33 as=1.155 ps=7.33 w=7 l=1
X68 diffpairibias.t19 diffpairibias.t18 gnd.t409 gnd.t408 sky130_fd_pr__nfet_01v8 ad=2.73 pd=14.78 as=2.73 ps=14.78 w=7 l=1
X69 CSoutput.t61 commonsourceibias.t96 gnd.t355 gnd.t243 sky130_fd_pr__nfet_01v8 ad=1.155 pd=7.33 as=1.155 ps=7.33 w=7 l=1
X70 a_n2318_13878.t8 minus.t9 a_n3827_n3924.t32 gnd.t146 sky130_fd_pr__nfet_01v8 ad=1.155 pd=7.33 as=1.155 ps=7.33 w=7 l=0.7
X71 a_n8300_8799.t6 a_n2318_13878.t56 a_n2318_8322.t20 vdd.t95 sky130_fd_pr__pfet_01v8 ad=1.485 pd=9.33 as=1.485 ps=9.33 w=9 l=0.5
X72 CSoutput.t4 commonsourceibias.t97 gnd.t354 gnd.t296 sky130_fd_pr__nfet_01v8 ad=1.155 pd=7.33 as=1.155 ps=7.33 w=7 l=1
X73 CSoutput.t14 commonsourceibias.t98 gnd.t353 gnd.t266 sky130_fd_pr__nfet_01v8 ad=1.155 pd=7.33 as=1.155 ps=7.33 w=7 l=1
X74 CSoutput.t202 a_n8300_8799.t53 vdd.t279 vdd.t237 sky130_fd_pr__pfet_01v8 ad=1.32 pd=8.33 as=1.32 ps=8.33 w=8 l=0.5
X75 commonsourceibias.t77 commonsourceibias.t76 gnd.t352 gnd.t246 sky130_fd_pr__nfet_01v8 ad=1.155 pd=7.33 as=1.155 ps=7.33 w=7 l=1
X76 vdd.t278 a_n8300_8799.t54 CSoutput.t201 vdd.t250 sky130_fd_pr__pfet_01v8 ad=1.32 pd=8.33 as=1.32 ps=8.33 w=8 l=0.5
X77 gnd.t130 gnd.t128 gnd.t129 gnd.t29 sky130_fd_pr__nfet_01v8 ad=2.73 pd=14.78 as=0 ps=0 w=7 l=1
X78 vdd.t277 a_n8300_8799.t55 CSoutput.t200 vdd.t160 sky130_fd_pr__pfet_01v8 ad=1.32 pd=8.33 as=1.32 ps=8.33 w=8 l=0.5
X79 CSoutput.t224 commonsourceibias.t99 gnd.t351 gnd.t322 sky130_fd_pr__nfet_01v8 ad=1.155 pd=7.33 as=1.155 ps=7.33 w=7 l=1
X80 plus.t3 gnd.t125 gnd.t127 gnd.t126 sky130_fd_pr__nfet_01v8 ad=0.165 pd=1.33 as=0.165 ps=1.33 w=1 l=0.5
X81 diffpairibias.t17 diffpairibias.t16 gnd.t171 gnd.t170 sky130_fd_pr__nfet_01v8 ad=2.73 pd=14.78 as=2.73 ps=14.78 w=7 l=1
X82 CSoutput.t199 a_n8300_8799.t56 vdd.t276 vdd.t168 sky130_fd_pr__pfet_01v8 ad=1.32 pd=8.33 as=1.32 ps=8.33 w=8 l=0.5
X83 gnd.t124 gnd.t122 gnd.t123 gnd.t29 sky130_fd_pr__nfet_01v8 ad=2.73 pd=14.78 as=0 ps=0 w=7 l=1
X84 gnd.t121 gnd.t119 gnd.t120 gnd.t46 sky130_fd_pr__nfet_01v8 ad=2.73 pd=14.78 as=0 ps=0 w=7 l=0.7
X85 CSoutput.t229 commonsourceibias.t100 gnd.t350 gnd.t215 sky130_fd_pr__nfet_01v8 ad=1.155 pd=7.33 as=2.73 ps=14.78 w=7 l=1
X86 vdd.t275 a_n8300_8799.t57 CSoutput.t198 vdd.t147 sky130_fd_pr__pfet_01v8 ad=1.32 pd=8.33 as=1.32 ps=8.33 w=8 l=0.5
X87 CSoutput.t99 commonsourceibias.t101 gnd.t349 gnd.t266 sky130_fd_pr__nfet_01v8 ad=1.155 pd=7.33 as=1.155 ps=7.33 w=7 l=1
X88 CSoutput.t197 a_n8300_8799.t58 vdd.t274 vdd.t258 sky130_fd_pr__pfet_01v8 ad=1.32 pd=8.33 as=1.32 ps=8.33 w=8 l=0.5
X89 vdd.t77 vdd.t75 vdd.t76 vdd.t45 sky130_fd_pr__pfet_01v8 ad=3.12 pd=16.78 as=0 ps=0 w=8 l=0.5
X90 gnd.t118 gnd.t116 gnd.t117 gnd.t72 sky130_fd_pr__nfet_01v8 ad=2.73 pd=14.78 as=0 ps=0 w=7 l=1
X91 CSoutput.t196 a_n8300_8799.t59 vdd.t273 vdd.t186 sky130_fd_pr__pfet_01v8 ad=1.32 pd=8.33 as=3.12 ps=16.78 w=8 l=0.5
X92 CSoutput.t195 a_n8300_8799.t60 vdd.t272 vdd.t210 sky130_fd_pr__pfet_01v8 ad=1.32 pd=8.33 as=1.32 ps=8.33 w=8 l=0.5
X93 CSoutput.t194 a_n8300_8799.t61 vdd.t271 vdd.t258 sky130_fd_pr__pfet_01v8 ad=1.32 pd=8.33 as=1.32 ps=8.33 w=8 l=0.5
X94 gnd.t348 commonsourceibias.t102 CSoutput.t13 gnd.t239 sky130_fd_pr__nfet_01v8 ad=1.155 pd=7.33 as=1.155 ps=7.33 w=7 l=1
X95 CSoutput.t98 commonsourceibias.t103 gnd.t347 gnd.t263 sky130_fd_pr__nfet_01v8 ad=1.155 pd=7.33 as=1.155 ps=7.33 w=7 l=1
X96 gnd.t346 commonsourceibias.t104 CSoutput.t26 gnd.t217 sky130_fd_pr__nfet_01v8 ad=2.73 pd=14.78 as=1.155 ps=7.33 w=7 l=1
X97 a_n3827_n3924.t22 plus.t9 a_n8300_8799.t4 gnd.t19 sky130_fd_pr__nfet_01v8 ad=1.155 pd=7.33 as=1.155 ps=7.33 w=7 l=0.7
X98 gnd.t115 gnd.t113 gnd.t114 gnd.t68 sky130_fd_pr__nfet_01v8 ad=2.73 pd=14.78 as=0 ps=0 w=7 l=1
X99 output.t3 outputibias.t8 gnd.t152 gnd.t151 sky130_fd_pr__nfet_01v8 ad=2.34 pd=12.78 as=2.34 ps=12.78 w=6 l=2
X100 a_n3827_n3924.t42 diffpairibias.t22 gnd.t174 gnd.t173 sky130_fd_pr__nfet_01v8 ad=2.73 pd=14.78 as=2.73 ps=14.78 w=7 l=1
X101 vdd.t270 a_n8300_8799.t62 CSoutput.t193 vdd.t226 sky130_fd_pr__pfet_01v8 ad=1.32 pd=8.33 as=1.32 ps=8.33 w=8 l=0.5
X102 vdd.t264 a_n8300_8799.t63 CSoutput.t192 vdd.t256 sky130_fd_pr__pfet_01v8 ad=1.32 pd=8.33 as=1.32 ps=8.33 w=8 l=0.5
X103 CSoutput.t77 commonsourceibias.t105 gnd.t345 gnd.t190 sky130_fd_pr__nfet_01v8 ad=1.155 pd=7.33 as=1.155 ps=7.33 w=7 l=1
X104 a_n2318_13878.t37 a_n2318_13878.t36 a_n2140_13878.t20 vdd.t124 sky130_fd_pr__pfet_01v8 ad=1.485 pd=9.33 as=1.485 ps=9.33 w=9 l=0.5
X105 vdd.t269 a_n8300_8799.t64 CSoutput.t191 vdd.t201 sky130_fd_pr__pfet_01v8 ad=1.32 pd=8.33 as=1.32 ps=8.33 w=8 l=0.5
X106 vdd.t268 a_n8300_8799.t65 CSoutput.t190 vdd.t233 sky130_fd_pr__pfet_01v8 ad=1.32 pd=8.33 as=1.32 ps=8.33 w=8 l=0.5
X107 vdd.t267 a_n8300_8799.t66 CSoutput.t189 vdd.t253 sky130_fd_pr__pfet_01v8 ad=1.32 pd=8.33 as=1.32 ps=8.33 w=8 l=0.5
X108 a_n8300_8799.t7 a_n2318_13878.t57 a_n2318_8322.t19 vdd.t96 sky130_fd_pr__pfet_01v8 ad=1.485 pd=9.33 as=1.485 ps=9.33 w=9 l=0.5
X109 a_n2318_13878.t13 a_n2318_13878.t12 a_n2140_13878.t19 vdd.t100 sky130_fd_pr__pfet_01v8 ad=3.51 pd=18.78 as=1.485 ps=9.33 w=9 l=0.5
X110 gnd.t344 commonsourceibias.t106 CSoutput.t76 gnd.t211 sky130_fd_pr__nfet_01v8 ad=1.155 pd=7.33 as=1.155 ps=7.33 w=7 l=1
X111 vdd.t135 CSoutput.t241 output.t18 gnd.t396 sky130_fd_pr__nfet_01v8 ad=0.825 pd=5.33 as=0.825 ps=5.33 w=5 l=1
X112 commonsourceibias.t75 commonsourceibias.t74 gnd.t343 gnd.t221 sky130_fd_pr__nfet_01v8 ad=1.155 pd=7.33 as=1.155 ps=7.33 w=7 l=1
X113 gnd.t342 commonsourceibias.t107 CSoutput.t25 gnd.t237 sky130_fd_pr__nfet_01v8 ad=1.155 pd=7.33 as=1.155 ps=7.33 w=7 l=1
X114 gnd.t112 gnd.t109 gnd.t111 gnd.t110 sky130_fd_pr__nfet_01v8 ad=1.95 pd=10.78 as=0 ps=0 w=5 l=1
X115 CSoutput.t97 commonsourceibias.t108 gnd.t341 gnd.t213 sky130_fd_pr__nfet_01v8 ad=1.155 pd=7.33 as=1.155 ps=7.33 w=7 l=1
X116 vdd.t266 a_n8300_8799.t67 CSoutput.t188 vdd.t164 sky130_fd_pr__pfet_01v8 ad=1.32 pd=8.33 as=1.32 ps=8.33 w=8 l=0.5
X117 CSoutput.t242 a_n2318_8322.t27 sky130_fd_pr__cap_mim_m3_1 l=12 w=12
X118 gnd.t339 commonsourceibias.t72 commonsourceibias.t73 gnd.t219 sky130_fd_pr__nfet_01v8 ad=1.155 pd=7.33 as=1.155 ps=7.33 w=7 l=1
X119 CSoutput.t187 a_n8300_8799.t68 vdd.t265 vdd.t205 sky130_fd_pr__pfet_01v8 ad=1.32 pd=8.33 as=1.32 ps=8.33 w=8 l=0.5
X120 CSoutput.t53 commonsourceibias.t109 gnd.t340 gnd.t286 sky130_fd_pr__nfet_01v8 ad=1.155 pd=7.33 as=1.155 ps=7.33 w=7 l=1
X121 diffpairibias.t15 diffpairibias.t14 gnd.t149 gnd.t148 sky130_fd_pr__nfet_01v8 ad=2.73 pd=14.78 as=2.73 ps=14.78 w=7 l=1
X122 a_n2318_13878.t1 minus.t10 a_n3827_n3924.t1 gnd.t5 sky130_fd_pr__nfet_01v8 ad=1.155 pd=7.33 as=1.155 ps=7.33 w=7 l=0.7
X123 vdd.t74 vdd.t72 vdd.t73 vdd.t21 sky130_fd_pr__pfet_01v8 ad=3.12 pd=16.78 as=0 ps=0 w=8 l=0.5
X124 vdd.t71 vdd.t69 vdd.t70 vdd.t59 sky130_fd_pr__pfet_01v8 ad=3.51 pd=18.78 as=0 ps=0 w=9 l=0.5
X125 CSoutput.t186 a_n8300_8799.t69 vdd.t263 vdd.t168 sky130_fd_pr__pfet_01v8 ad=1.32 pd=8.33 as=1.32 ps=8.33 w=8 l=0.5
X126 vdd.t68 vdd.t65 vdd.t67 vdd.t66 sky130_fd_pr__pfet_01v8 ad=3.51 pd=18.78 as=0 ps=0 w=9 l=0.5
X127 gnd.t338 commonsourceibias.t110 CSoutput.t92 gnd.t226 sky130_fd_pr__nfet_01v8 ad=1.155 pd=7.33 as=1.155 ps=7.33 w=7 l=1
X128 a_n3827_n3924.t31 minus.t11 a_n2318_13878.t7 gnd.t145 sky130_fd_pr__nfet_01v8 ad=1.155 pd=7.33 as=1.155 ps=7.33 w=7 l=0.7
X129 CSoutput.t185 a_n8300_8799.t70 vdd.t262 vdd.t137 sky130_fd_pr__pfet_01v8 ad=1.32 pd=8.33 as=1.32 ps=8.33 w=8 l=0.5
X130 vdd.t261 a_n8300_8799.t71 CSoutput.t184 vdd.t256 sky130_fd_pr__pfet_01v8 ad=1.32 pd=8.33 as=1.32 ps=8.33 w=8 l=0.5
X131 vdd.t92 a_n2318_13878.t58 a_n2318_8322.t7 vdd.t91 sky130_fd_pr__pfet_01v8 ad=1.485 pd=9.33 as=1.485 ps=9.33 w=9 l=0.5
X132 gnd.t337 commonsourceibias.t70 commonsourceibias.t71 gnd.t208 sky130_fd_pr__nfet_01v8 ad=1.155 pd=7.33 as=1.155 ps=7.33 w=7 l=1
X133 a_n2318_13878.t31 a_n2318_13878.t30 a_n2140_13878.t18 vdd.t119 sky130_fd_pr__pfet_01v8 ad=3.51 pd=18.78 as=1.485 ps=9.33 w=9 l=0.5
X134 CSoutput.t228 commonsourceibias.t111 gnd.t336 gnd.t229 sky130_fd_pr__nfet_01v8 ad=1.155 pd=7.33 as=1.155 ps=7.33 w=7 l=1
X135 vdd.t64 vdd.t62 vdd.t63 vdd.t45 sky130_fd_pr__pfet_01v8 ad=3.12 pd=16.78 as=0 ps=0 w=8 l=0.5
X136 CSoutput.t232 commonsourceibias.t112 gnd.t335 gnd.t281 sky130_fd_pr__nfet_01v8 ad=1.155 pd=7.33 as=1.155 ps=7.33 w=7 l=1
X137 a_n2318_8322.t6 a_n2318_13878.t59 vdd.t94 vdd.t93 sky130_fd_pr__pfet_01v8 ad=1.485 pd=9.33 as=1.485 ps=9.33 w=9 l=0.5
X138 CSoutput.t183 a_n8300_8799.t72 vdd.t260 vdd.t210 sky130_fd_pr__pfet_01v8 ad=1.32 pd=8.33 as=1.32 ps=8.33 w=8 l=0.5
X139 CSoutput.t182 a_n8300_8799.t73 vdd.t259 vdd.t258 sky130_fd_pr__pfet_01v8 ad=1.32 pd=8.33 as=1.32 ps=8.33 w=8 l=0.5
X140 a_n3827_n3924.t37 diffpairibias.t23 gnd.t158 gnd.t157 sky130_fd_pr__nfet_01v8 ad=2.73 pd=14.78 as=2.73 ps=14.78 w=7 l=1
X141 gnd.t334 commonsourceibias.t113 CSoutput.t33 gnd.t283 sky130_fd_pr__nfet_01v8 ad=1.155 pd=7.33 as=1.155 ps=7.33 w=7 l=1
X142 gnd.t108 gnd.t106 gnd.t107 gnd.t50 sky130_fd_pr__nfet_01v8 ad=2.73 pd=14.78 as=0 ps=0 w=7 l=0.7
X143 a_n3827_n3924.t41 minus.t12 a_n2318_13878.t45 gnd.t169 sky130_fd_pr__nfet_01v8 ad=1.155 pd=7.33 as=1.155 ps=7.33 w=7 l=0.7
X144 vdd.t1 a_n2318_13878.t60 a_n2140_13878.t6 vdd.t0 sky130_fd_pr__pfet_01v8 ad=1.485 pd=9.33 as=1.485 ps=9.33 w=9 l=0.5
X145 commonsourceibias.t17 commonsourceibias.t16 gnd.t325 gnd.t200 sky130_fd_pr__nfet_01v8 ad=1.155 pd=7.33 as=2.73 ps=14.78 w=7 l=1
X146 gnd.t333 commonsourceibias.t114 CSoutput.t91 gnd.t257 sky130_fd_pr__nfet_01v8 ad=1.155 pd=7.33 as=1.155 ps=7.33 w=7 l=1
X147 commonsourceibias.t23 commonsourceibias.t22 gnd.t332 gnd.t198 sky130_fd_pr__nfet_01v8 ad=1.155 pd=7.33 as=1.155 ps=7.33 w=7 l=1
X148 a_n2318_13878.t51 minus.t13 a_n3827_n3924.t49 gnd.t18 sky130_fd_pr__nfet_01v8 ad=1.155 pd=7.33 as=2.73 ps=14.78 w=7 l=0.7
X149 a_n3827_n3924.t21 plus.t10 a_n8300_8799.t0 gnd.t3 sky130_fd_pr__nfet_01v8 ad=1.155 pd=7.33 as=1.155 ps=7.33 w=7 l=0.7
X150 a_n3827_n3924.t20 plus.t11 a_n8300_8799.t21 gnd.t150 sky130_fd_pr__nfet_01v8 ad=1.155 pd=7.33 as=1.155 ps=7.33 w=7 l=0.7
X151 vdd.t61 vdd.t58 vdd.t60 vdd.t59 sky130_fd_pr__pfet_01v8 ad=3.51 pd=18.78 as=0 ps=0 w=9 l=0.5
X152 gnd.t331 commonsourceibias.t20 commonsourceibias.t21 gnd.t196 sky130_fd_pr__nfet_01v8 ad=1.155 pd=7.33 as=1.155 ps=7.33 w=7 l=1
X153 output.t17 CSoutput.t243 vdd.t136 gnd.t395 sky130_fd_pr__nfet_01v8 ad=0.825 pd=5.33 as=0.825 ps=5.33 w=5 l=1
X154 CSoutput.t32 commonsourceibias.t115 gnd.t330 gnd.t243 sky130_fd_pr__nfet_01v8 ad=1.155 pd=7.33 as=1.155 ps=7.33 w=7 l=1
X155 gnd.t329 commonsourceibias.t116 CSoutput.t10 gnd.t192 sky130_fd_pr__nfet_01v8 ad=1.155 pd=7.33 as=1.155 ps=7.33 w=7 l=1
X156 vdd.t257 a_n8300_8799.t74 CSoutput.t181 vdd.t256 sky130_fd_pr__pfet_01v8 ad=1.32 pd=8.33 as=1.32 ps=8.33 w=8 l=0.5
X157 vdd.t255 a_n8300_8799.t75 CSoutput.t180 vdd.t233 sky130_fd_pr__pfet_01v8 ad=1.32 pd=8.33 as=1.32 ps=8.33 w=8 l=0.5
X158 vdd.t254 a_n8300_8799.t76 CSoutput.t179 vdd.t253 sky130_fd_pr__pfet_01v8 ad=1.32 pd=8.33 as=1.32 ps=8.33 w=8 l=0.5
X159 CSoutput.t96 commonsourceibias.t117 gnd.t328 gnd.t263 sky130_fd_pr__nfet_01v8 ad=1.155 pd=7.33 as=1.155 ps=7.33 w=7 l=1
X160 a_n8300_8799.t35 plus.t12 a_n3827_n3924.t19 gnd.t162 sky130_fd_pr__nfet_01v8 ad=1.155 pd=7.33 as=1.155 ps=7.33 w=7 l=0.7
X161 a_n8300_8799.t32 plus.t13 a_n3827_n3924.t18 gnd.t23 sky130_fd_pr__nfet_01v8 ad=1.155 pd=7.33 as=2.73 ps=14.78 w=7 l=0.7
X162 commonsourceibias.t15 commonsourceibias.t14 gnd.t324 gnd.t186 sky130_fd_pr__nfet_01v8 ad=1.155 pd=7.33 as=1.155 ps=7.33 w=7 l=1
X163 vdd.t57 vdd.t54 vdd.t56 vdd.t55 sky130_fd_pr__pfet_01v8 ad=3.51 pd=18.78 as=0 ps=0 w=9 l=0.5
X164 a_n2318_8322.t5 a_n2318_13878.t61 vdd.t3 vdd.t2 sky130_fd_pr__pfet_01v8 ad=3.51 pd=18.78 as=1.485 ps=9.33 w=9 l=0.5
X165 a_n8300_8799.t23 a_n2318_13878.t62 a_n2318_8322.t18 vdd.t4 sky130_fd_pr__pfet_01v8 ad=1.485 pd=9.33 as=1.485 ps=9.33 w=9 l=0.5
X166 gnd.t327 commonsourceibias.t118 CSoutput.t75 gnd.t224 sky130_fd_pr__nfet_01v8 ad=1.155 pd=7.33 as=1.155 ps=7.33 w=7 l=1
X167 CSoutput.t178 a_n8300_8799.t77 vdd.t252 vdd.t177 sky130_fd_pr__pfet_01v8 ad=1.32 pd=8.33 as=1.32 ps=8.33 w=8 l=0.5
X168 diffpairibias.t13 diffpairibias.t12 gnd.t405 gnd.t404 sky130_fd_pr__nfet_01v8 ad=2.73 pd=14.78 as=2.73 ps=14.78 w=7 l=1
X169 CSoutput.t244 a_n2318_8322.t25 sky130_fd_pr__cap_mim_m3_1 l=12 w=12
X170 vdd.t251 a_n8300_8799.t78 CSoutput.t177 vdd.t250 sky130_fd_pr__pfet_01v8 ad=1.32 pd=8.33 as=1.32 ps=8.33 w=8 l=0.5
X171 a_n2318_13878.t47 minus.t14 a_n3827_n3924.t44 gnd.t177 sky130_fd_pr__nfet_01v8 ad=1.155 pd=7.33 as=1.155 ps=7.33 w=7 l=0.7
X172 a_n2318_13878.t29 a_n2318_13878.t28 a_n2140_13878.t17 vdd.t106 sky130_fd_pr__pfet_01v8 ad=1.485 pd=9.33 as=1.485 ps=9.33 w=9 l=0.5
X173 vdd.t249 a_n8300_8799.t79 CSoutput.t176 vdd.t164 sky130_fd_pr__pfet_01v8 ad=1.32 pd=8.33 as=1.32 ps=8.33 w=8 l=0.5
X174 a_n8300_8799.t24 a_n2318_13878.t63 a_n2318_8322.t17 vdd.t84 sky130_fd_pr__pfet_01v8 ad=1.485 pd=9.33 as=1.485 ps=9.33 w=9 l=0.5
X175 CSoutput.t175 a_n8300_8799.t80 vdd.t248 vdd.t205 sky130_fd_pr__pfet_01v8 ad=1.32 pd=8.33 as=1.32 ps=8.33 w=8 l=0.5
X176 gnd.t326 commonsourceibias.t18 commonsourceibias.t19 gnd.t192 sky130_fd_pr__nfet_01v8 ad=1.155 pd=7.33 as=1.155 ps=7.33 w=7 l=1
X177 a_n2140_13878.t16 a_n2318_13878.t22 a_n2318_13878.t23 vdd.t96 sky130_fd_pr__pfet_01v8 ad=1.485 pd=9.33 as=1.485 ps=9.33 w=9 l=0.5
X178 commonsourceibias.t13 commonsourceibias.t12 gnd.t323 gnd.t322 sky130_fd_pr__nfet_01v8 ad=1.155 pd=7.33 as=1.155 ps=7.33 w=7 l=1
X179 gnd.t105 gnd.t103 minus.t4 gnd.t104 sky130_fd_pr__nfet_01v8 ad=0.165 pd=1.33 as=0.39 ps=2.78 w=1 l=0.5
X180 vdd.t53 vdd.t51 vdd.t52 vdd.t21 sky130_fd_pr__pfet_01v8 ad=3.12 pd=16.78 as=0 ps=0 w=8 l=0.5
X181 a_n3827_n3924.t45 minus.t15 a_n2318_13878.t48 gnd.t172 sky130_fd_pr__nfet_01v8 ad=1.155 pd=7.33 as=1.155 ps=7.33 w=7 l=0.7
X182 gnd.t321 commonsourceibias.t119 CSoutput.t24 gnd.t231 sky130_fd_pr__nfet_01v8 ad=1.155 pd=7.33 as=1.155 ps=7.33 w=7 l=1
X183 gnd.t102 gnd.t100 gnd.t101 gnd.t72 sky130_fd_pr__nfet_01v8 ad=2.73 pd=14.78 as=0 ps=0 w=7 l=1
X184 output.t16 CSoutput.t245 vdd.t131 gnd.t394 sky130_fd_pr__nfet_01v8 ad=0.825 pd=5.33 as=0.825 ps=5.33 w=5 l=1
X185 gnd.t320 commonsourceibias.t120 CSoutput.t95 gnd.t208 sky130_fd_pr__nfet_01v8 ad=1.155 pd=7.33 as=1.155 ps=7.33 w=7 l=1
X186 CSoutput.t174 a_n8300_8799.t81 vdd.t247 vdd.t237 sky130_fd_pr__pfet_01v8 ad=1.32 pd=8.33 as=1.32 ps=8.33 w=8 l=0.5
X187 vdd.t110 a_n2318_13878.t64 a_n2318_8322.t4 vdd.t109 sky130_fd_pr__pfet_01v8 ad=1.485 pd=9.33 as=3.51 ps=18.78 w=9 l=0.5
X188 a_n2140_13878.t15 a_n2318_13878.t18 a_n2318_13878.t19 vdd.t97 sky130_fd_pr__pfet_01v8 ad=1.485 pd=9.33 as=3.51 ps=18.78 w=9 l=0.5
X189 output.t2 outputibias.t9 gnd.t401 gnd.t400 sky130_fd_pr__nfet_01v8 ad=2.34 pd=12.78 as=2.34 ps=12.78 w=6 l=2
X190 vdd.t246 a_n8300_8799.t82 CSoutput.t173 vdd.t235 sky130_fd_pr__pfet_01v8 ad=1.32 pd=8.33 as=1.32 ps=8.33 w=8 l=0.5
X191 a_n2318_13878.t25 a_n2318_13878.t24 a_n2140_13878.t14 vdd.t87 sky130_fd_pr__pfet_01v8 ad=1.485 pd=9.33 as=1.485 ps=9.33 w=9 l=0.5
X192 gnd.t99 gnd.t97 gnd.t98 gnd.t68 sky130_fd_pr__nfet_01v8 ad=2.73 pd=14.78 as=0 ps=0 w=7 l=1
X193 output.t15 CSoutput.t246 vdd.t132 gnd.t393 sky130_fd_pr__nfet_01v8 ad=0.825 pd=5.33 as=0.825 ps=5.33 w=5 l=1
X194 vdd.t133 CSoutput.t247 output.t14 gnd.t392 sky130_fd_pr__nfet_01v8 ad=0.825 pd=5.33 as=0.825 ps=5.33 w=5 l=1
X195 CSoutput.t90 commonsourceibias.t121 gnd.t319 gnd.t190 sky130_fd_pr__nfet_01v8 ad=1.155 pd=7.33 as=1.155 ps=7.33 w=7 l=1
X196 gnd.t318 commonsourceibias.t122 CSoutput.t31 gnd.t239 sky130_fd_pr__nfet_01v8 ad=1.155 pd=7.33 as=1.155 ps=7.33 w=7 l=1
X197 commonsourceibias.t11 commonsourceibias.t10 gnd.t317 gnd.t252 sky130_fd_pr__nfet_01v8 ad=1.155 pd=7.33 as=1.155 ps=7.33 w=7 l=1
X198 gnd.t316 commonsourceibias.t123 CSoutput.t227 gnd.t233 sky130_fd_pr__nfet_01v8 ad=1.155 pd=7.33 as=1.155 ps=7.33 w=7 l=1
X199 vdd.t245 a_n8300_8799.t83 CSoutput.t172 vdd.t179 sky130_fd_pr__pfet_01v8 ad=1.32 pd=8.33 as=1.32 ps=8.33 w=8 l=0.5
X200 a_n3827_n3924.t17 plus.t14 a_n8300_8799.t19 gnd.t22 sky130_fd_pr__nfet_01v8 ad=2.73 pd=14.78 as=1.155 ps=7.33 w=7 l=0.7
X201 gnd.t315 commonsourceibias.t124 CSoutput.t231 gnd.t237 sky130_fd_pr__nfet_01v8 ad=1.155 pd=7.33 as=1.155 ps=7.33 w=7 l=1
X202 gnd.t96 gnd.t94 minus.t3 gnd.t95 sky130_fd_pr__nfet_01v8 ad=0.165 pd=1.33 as=0.165 ps=1.33 w=1 l=0.5
X203 a_n3827_n3924.t2 diffpairibias.t24 gnd.t7 gnd.t6 sky130_fd_pr__nfet_01v8 ad=2.73 pd=14.78 as=2.73 ps=14.78 w=7 l=1
X204 a_n3827_n3924.t35 diffpairibias.t25 gnd.t156 gnd.t155 sky130_fd_pr__nfet_01v8 ad=2.73 pd=14.78 as=2.73 ps=14.78 w=7 l=1
X205 vdd.t244 a_n8300_8799.t84 CSoutput.t171 vdd.t226 sky130_fd_pr__pfet_01v8 ad=1.32 pd=8.33 as=1.32 ps=8.33 w=8 l=0.5
X206 vdd.t243 a_n8300_8799.t85 CSoutput.t170 vdd.t184 sky130_fd_pr__pfet_01v8 ad=3.12 pd=16.78 as=1.32 ps=8.33 w=8 l=0.5
X207 a_n8300_8799.t33 plus.t15 a_n3827_n3924.t16 gnd.t147 sky130_fd_pr__nfet_01v8 ad=1.155 pd=7.33 as=1.155 ps=7.33 w=7 l=0.7
X208 CSoutput.t248 a_n2318_8322.t26 sky130_fd_pr__cap_mim_m3_1 l=12 w=12
X209 CSoutput.t169 a_n8300_8799.t86 vdd.t242 vdd.t143 sky130_fd_pr__pfet_01v8 ad=1.32 pd=8.33 as=1.32 ps=8.33 w=8 l=0.5
X210 CSoutput.t168 a_n8300_8799.t87 vdd.t241 vdd.t240 sky130_fd_pr__pfet_01v8 ad=1.32 pd=8.33 as=1.32 ps=8.33 w=8 l=0.5
X211 CSoutput.t167 a_n8300_8799.t88 vdd.t239 vdd.t217 sky130_fd_pr__pfet_01v8 ad=1.32 pd=8.33 as=1.32 ps=8.33 w=8 l=0.5
X212 CSoutput.t249 a_n2318_8322.t26 sky130_fd_pr__cap_mim_m3_1 l=12 w=12
X213 CSoutput.t18 commonsourceibias.t125 gnd.t314 gnd.t296 sky130_fd_pr__nfet_01v8 ad=1.155 pd=7.33 as=1.155 ps=7.33 w=7 l=1
X214 output.t13 CSoutput.t250 vdd.t129 gnd.t391 sky130_fd_pr__nfet_01v8 ad=0.825 pd=5.33 as=0.825 ps=5.33 w=5 l=1
X215 gnd.t93 gnd.t91 gnd.t92 gnd.t29 sky130_fd_pr__nfet_01v8 ad=2.73 pd=14.78 as=0 ps=0 w=7 l=1
X216 gnd.t313 commonsourceibias.t126 CSoutput.t89 gnd.t257 sky130_fd_pr__nfet_01v8 ad=1.155 pd=7.33 as=1.155 ps=7.33 w=7 l=1
X217 diffpairibias.t11 diffpairibias.t10 gnd.t399 gnd.t398 sky130_fd_pr__nfet_01v8 ad=2.73 pd=14.78 as=2.73 ps=14.78 w=7 l=1
X218 gnd.t90 gnd.t88 gnd.t89 gnd.t54 sky130_fd_pr__nfet_01v8 ad=2.73 pd=14.78 as=0 ps=0 w=7 l=1
X219 a_n2140_13878.t5 a_n2318_13878.t65 vdd.t112 vdd.t111 sky130_fd_pr__pfet_01v8 ad=1.485 pd=9.33 as=1.485 ps=9.33 w=9 l=0.5
X220 vdd.t6 a_n2318_13878.t66 a_n2140_13878.t4 vdd.t5 sky130_fd_pr__pfet_01v8 ad=1.485 pd=9.33 as=1.485 ps=9.33 w=9 l=0.5
X221 gnd.t312 commonsourceibias.t127 CSoutput.t52 gnd.t211 sky130_fd_pr__nfet_01v8 ad=1.155 pd=7.33 as=1.155 ps=7.33 w=7 l=1
X222 CSoutput.t166 a_n8300_8799.t89 vdd.t238 vdd.t237 sky130_fd_pr__pfet_01v8 ad=1.32 pd=8.33 as=1.32 ps=8.33 w=8 l=0.5
X223 gnd.t311 commonsourceibias.t128 CSoutput.t88 gnd.t275 sky130_fd_pr__nfet_01v8 ad=1.155 pd=7.33 as=1.155 ps=7.33 w=7 l=1
X224 CSoutput.t71 commonsourceibias.t129 gnd.t310 gnd.t200 sky130_fd_pr__nfet_01v8 ad=1.155 pd=7.33 as=2.73 ps=14.78 w=7 l=1
X225 vdd.t236 a_n8300_8799.t90 CSoutput.t165 vdd.t235 sky130_fd_pr__pfet_01v8 ad=1.32 pd=8.33 as=1.32 ps=8.33 w=8 l=0.5
X226 output.t12 CSoutput.t251 vdd.t130 gnd.t390 sky130_fd_pr__nfet_01v8 ad=0.825 pd=5.33 as=0.825 ps=5.33 w=5 l=1
X227 vdd.t234 a_n8300_8799.t91 CSoutput.t164 vdd.t233 sky130_fd_pr__pfet_01v8 ad=1.32 pd=8.33 as=1.32 ps=8.33 w=8 l=0.5
X228 CSoutput.t163 a_n8300_8799.t92 vdd.t232 vdd.t199 sky130_fd_pr__pfet_01v8 ad=1.32 pd=8.33 as=1.32 ps=8.33 w=8 l=0.5
X229 outputibias.t5 outputibias.t4 gnd.t161 gnd.t160 sky130_fd_pr__nfet_01v8 ad=2.34 pd=12.78 as=2.34 ps=12.78 w=6 l=2
X230 a_n2140_13878.t13 a_n2318_13878.t38 a_n2318_13878.t39 vdd.t95 sky130_fd_pr__pfet_01v8 ad=1.485 pd=9.33 as=1.485 ps=9.33 w=9 l=0.5
X231 diffpairibias.t9 diffpairibias.t8 gnd.t176 gnd.t175 sky130_fd_pr__nfet_01v8 ad=2.73 pd=14.78 as=2.73 ps=14.78 w=7 l=1
X232 gnd.t309 commonsourceibias.t130 CSoutput.t48 gnd.t231 sky130_fd_pr__nfet_01v8 ad=1.155 pd=7.33 as=1.155 ps=7.33 w=7 l=1
X233 a_n3827_n3924.t47 minus.t16 a_n2318_13878.t49 gnd.t159 sky130_fd_pr__nfet_01v8 ad=1.155 pd=7.33 as=1.155 ps=7.33 w=7 l=0.7
X234 gnd.t308 commonsourceibias.t131 CSoutput.t41 gnd.t206 sky130_fd_pr__nfet_01v8 ad=1.155 pd=7.33 as=1.155 ps=7.33 w=7 l=1
X235 vdd.t231 a_n8300_8799.t93 CSoutput.t162 vdd.t179 sky130_fd_pr__pfet_01v8 ad=1.32 pd=8.33 as=1.32 ps=8.33 w=8 l=0.5
X236 commonsourceibias.t41 commonsourceibias.t40 gnd.t307 gnd.t296 sky130_fd_pr__nfet_01v8 ad=1.155 pd=7.33 as=1.155 ps=7.33 w=7 l=1
X237 a_n2318_8322.t16 a_n2318_13878.t67 a_n8300_8799.t2 vdd.t7 sky130_fd_pr__pfet_01v8 ad=1.485 pd=9.33 as=1.485 ps=9.33 w=9 l=0.5
X238 CSoutput.t161 a_n8300_8799.t94 vdd.t230 vdd.t181 sky130_fd_pr__pfet_01v8 ad=1.32 pd=8.33 as=1.32 ps=8.33 w=8 l=0.5
X239 diffpairibias.t7 diffpairibias.t6 gnd.t411 gnd.t410 sky130_fd_pr__nfet_01v8 ad=2.73 pd=14.78 as=2.73 ps=14.78 w=7 l=1
X240 vdd.t229 a_n8300_8799.t95 CSoutput.t160 vdd.t228 sky130_fd_pr__pfet_01v8 ad=1.32 pd=8.33 as=1.32 ps=8.33 w=8 l=0.5
X241 a_n2318_13878.t0 minus.t17 a_n3827_n3924.t0 gnd.t0 sky130_fd_pr__nfet_01v8 ad=1.155 pd=7.33 as=1.155 ps=7.33 w=7 l=0.7
X242 a_n2318_13878.t50 minus.t18 a_n3827_n3924.t48 gnd.t4 sky130_fd_pr__nfet_01v8 ad=1.155 pd=7.33 as=1.155 ps=7.33 w=7 l=0.7
X243 vdd.t50 vdd.t48 vdd.t49 vdd.t31 sky130_fd_pr__pfet_01v8 ad=3.12 pd=16.78 as=0 ps=0 w=8 l=0.5
X244 plus.t2 gnd.t85 gnd.t87 gnd.t86 sky130_fd_pr__nfet_01v8 ad=0.165 pd=1.33 as=0.165 ps=1.33 w=1 l=0.5
X245 vdd.t126 a_n2318_13878.t68 a_n2318_8322.t3 vdd.t125 sky130_fd_pr__pfet_01v8 ad=1.485 pd=9.33 as=3.51 ps=18.78 w=9 l=0.5
X246 vdd.t227 a_n8300_8799.t96 CSoutput.t159 vdd.t226 sky130_fd_pr__pfet_01v8 ad=1.32 pd=8.33 as=1.32 ps=8.33 w=8 l=0.5
X247 vdd.t225 a_n8300_8799.t97 CSoutput.t158 vdd.t184 sky130_fd_pr__pfet_01v8 ad=3.12 pd=16.78 as=1.32 ps=8.33 w=8 l=0.5