* NGSPICE file created from opamp240.ext - technology: sky130A

.subckt opamp240 gnd CSoutput output vdd plus minus commonsourceibias outputibias
+ diffpairibias
X0 a_n1808_13878.t19 a_n1986_13878.t19 a_n1986_13878.t20 vdd.t205 sky130_fd_pr__pfet_01v8 ad=1.485 pd=9.33 as=1.485 ps=9.33 w=9 l=0.5
X1 CSoutput.t93 a_n6308_8799.t36 vdd.t114 vdd.t113 sky130_fd_pr__pfet_01v8 ad=1.32 pd=8.33 as=1.32 ps=8.33 w=8 l=0.5
X2 a_n1808_13878.t1 a_n1986_13878.t48 vdd.t216 vdd.t215 sky130_fd_pr__pfet_01v8 ad=1.485 pd=9.33 as=1.485 ps=9.33 w=9 l=0.5
X3 vdd.t88 vdd.t86 vdd.t87 vdd.t22 sky130_fd_pr__pfet_01v8 ad=3.12 pd=16.78 as=0 ps=0 w=8 l=0.5
X4 CSoutput.t92 a_n6308_8799.t37 vdd.t115 vdd.t93 sky130_fd_pr__pfet_01v8 ad=1.32 pd=8.33 as=1.32 ps=8.33 w=8 l=0.5
X5 gnd.t131 commonsourceibias.t8 commonsourceibias.t9 gnd.t69 sky130_fd_pr__nfet_01v8 ad=1.155 pd=7.33 as=1.155 ps=7.33 w=7 l=1
X6 commonsourceibias.t7 commonsourceibias.t6 gnd.t130 gnd.t28 sky130_fd_pr__nfet_01v8 ad=1.155 pd=7.33 as=1.155 ps=7.33 w=7 l=1
X7 CSoutput.t91 a_n6308_8799.t38 vdd.t226 vdd.t91 sky130_fd_pr__pfet_01v8 ad=1.32 pd=8.33 as=1.32 ps=8.33 w=8 l=0.5
X8 a_n3827_n3924.t24 diffpairibias.t20 gnd.t320 gnd.t319 sky130_fd_pr__nfet_01v8 ad=2.73 pd=14.78 as=2.73 ps=14.78 w=7 l=1
X9 a_n1986_8322.t21 a_n1986_13878.t49 a_n6308_8799.t32 vdd.t214 sky130_fd_pr__pfet_01v8 ad=1.485 pd=9.33 as=1.485 ps=9.33 w=9 l=0.5
X10 gnd.t129 commonsourceibias.t4 commonsourceibias.t5 gnd.t14 sky130_fd_pr__nfet_01v8 ad=1.155 pd=7.33 as=1.155 ps=7.33 w=7 l=1
X11 gnd.t274 gnd.t272 gnd.t273 gnd.t191 sky130_fd_pr__nfet_01v8 ad=2.73 pd=14.78 as=0 ps=0 w=7 l=0.5
X12 gnd.t128 commonsourceibias.t48 CSoutput.t102 gnd.t64 sky130_fd_pr__nfet_01v8 ad=1.155 pd=7.33 as=1.155 ps=7.33 w=7 l=1
X13 commonsourceibias.t37 commonsourceibias.t36 gnd.t127 gnd.t38 sky130_fd_pr__nfet_01v8 ad=1.155 pd=7.33 as=1.155 ps=7.33 w=7 l=1
X14 minus.t4 gnd.t267 gnd.t269 gnd.t268 sky130_fd_pr__nfet_01v8 ad=0.165 pd=1.33 as=0.165 ps=1.33 w=1 l=0.5
X15 gnd.t271 gnd.t270 plus.t4 gnd.t191 sky130_fd_pr__nfet_01v8 ad=0.165 pd=1.33 as=0.165 ps=1.33 w=1 l=0.5
X16 a_n6308_8799.t3 plus.t5 a_n3827_n3924.t5 gnd.t135 sky130_fd_pr__nfet_01v8 ad=1.155 pd=7.33 as=1.155 ps=7.33 w=7 l=0.5
X17 gnd.t266 gnd.t264 gnd.t265 gnd.t187 sky130_fd_pr__nfet_01v8 ad=2.73 pd=14.78 as=0 ps=0 w=7 l=0.5
X18 output.t19 outputibias.t8 gnd.t289 gnd.t288 sky130_fd_pr__nfet_01v8 ad=2.34 pd=12.78 as=2.34 ps=12.78 w=6 l=2
X19 gnd.t263 gnd.t261 gnd.t262 gnd.t183 sky130_fd_pr__nfet_01v8 ad=2.73 pd=14.78 as=0 ps=0 w=7 l=1
X20 CSoutput.t90 a_n6308_8799.t39 vdd.t227 vdd.t148 sky130_fd_pr__pfet_01v8 ad=1.32 pd=8.33 as=1.32 ps=8.33 w=8 l=0.5
X21 vdd.t10 a_n6308_8799.t40 CSoutput.t89 vdd.t0 sky130_fd_pr__pfet_01v8 ad=1.32 pd=8.33 as=1.32 ps=8.33 w=8 l=0.5
X22 a_n6308_8799.t24 a_n1986_13878.t50 a_n1986_8322.t20 vdd.t174 sky130_fd_pr__pfet_01v8 ad=1.485 pd=9.33 as=3.51 ps=18.78 w=9 l=0.5
X23 vdd.t12 a_n6308_8799.t41 CSoutput.t88 vdd.t11 sky130_fd_pr__pfet_01v8 ad=1.32 pd=8.33 as=1.32 ps=8.33 w=8 l=0.5
X24 commonsourceibias.t35 commonsourceibias.t34 gnd.t126 gnd.t67 sky130_fd_pr__nfet_01v8 ad=1.155 pd=7.33 as=1.155 ps=7.33 w=7 l=1
X25 CSoutput.t87 a_n6308_8799.t42 vdd.t142 vdd.t141 sky130_fd_pr__pfet_01v8 ad=1.32 pd=8.33 as=3.12 ps=16.78 w=8 l=0.5
X26 vdd.t85 vdd.t83 vdd.t84 vdd.t22 sky130_fd_pr__pfet_01v8 ad=3.12 pd=16.78 as=0 ps=0 w=8 l=0.5
X27 gnd.t125 commonsourceibias.t49 CSoutput.t15 gnd.t22 sky130_fd_pr__nfet_01v8 ad=1.155 pd=7.33 as=1.155 ps=7.33 w=7 l=1
X28 CSoutput.t120 commonsourceibias.t50 gnd.t124 gnd.t36 sky130_fd_pr__nfet_01v8 ad=1.155 pd=7.33 as=1.155 ps=7.33 w=7 l=1
X29 a_n6308_8799.t9 plus.t6 a_n3827_n3924.t25 gnd.t137 sky130_fd_pr__nfet_01v8 ad=1.155 pd=7.33 as=1.155 ps=7.33 w=7 l=0.5
X30 gnd.t260 gnd.t257 gnd.t259 gnd.t258 sky130_fd_pr__nfet_01v8 ad=1.95 pd=10.78 as=0 ps=0 w=5 l=1
X31 gnd.t256 gnd.t253 gnd.t255 gnd.t254 sky130_fd_pr__nfet_01v8 ad=2.34 pd=12.78 as=0 ps=0 w=6 l=2
X32 CSoutput.t86 a_n6308_8799.t43 vdd.t143 vdd.t113 sky130_fd_pr__pfet_01v8 ad=1.32 pd=8.33 as=1.32 ps=8.33 w=8 l=0.5
X33 vdd.t82 vdd.t80 vdd.t81 vdd.t26 sky130_fd_pr__pfet_01v8 ad=3.12 pd=16.78 as=0 ps=0 w=8 l=0.5
X34 gnd.t123 commonsourceibias.t32 commonsourceibias.t33 gnd.t64 sky130_fd_pr__nfet_01v8 ad=1.155 pd=7.33 as=1.155 ps=7.33 w=7 l=1
X35 CSoutput.t85 a_n6308_8799.t44 vdd.t217 vdd.t133 sky130_fd_pr__pfet_01v8 ad=1.32 pd=8.33 as=1.32 ps=8.33 w=8 l=0.5
X36 a_n3827_n3924.t57 minus.t5 a_n1986_13878.t47 gnd.t306 sky130_fd_pr__nfet_01v8 ad=1.155 pd=7.33 as=1.155 ps=7.33 w=7 l=0.5
X37 a_n3827_n3924.t23 diffpairibias.t21 gnd.t303 gnd.t302 sky130_fd_pr__nfet_01v8 ad=2.73 pd=14.78 as=2.73 ps=14.78 w=7 l=1
X38 commonsourceibias.t31 commonsourceibias.t30 gnd.t122 gnd.t16 sky130_fd_pr__nfet_01v8 ad=1.155 pd=7.33 as=2.73 ps=14.78 w=7 l=1
X39 a_n1986_13878.t0 minus.t6 a_n3827_n3924.t0 gnd.t4 sky130_fd_pr__nfet_01v8 ad=1.155 pd=7.33 as=1.155 ps=7.33 w=7 l=0.5
X40 a_n3827_n3924.t32 plus.t7 a_n6308_8799.t12 gnd.t294 sky130_fd_pr__nfet_01v8 ad=1.155 pd=7.33 as=1.155 ps=7.33 w=7 l=0.5
X41 CSoutput.t84 a_n6308_8799.t45 vdd.t218 vdd.t91 sky130_fd_pr__pfet_01v8 ad=1.32 pd=8.33 as=1.32 ps=8.33 w=8 l=0.5
X42 a_n3827_n3924.t14 plus.t8 a_n6308_8799.t8 gnd.t275 sky130_fd_pr__nfet_01v8 ad=1.155 pd=7.33 as=1.155 ps=7.33 w=7 l=0.5
X43 a_n3827_n3924.t44 minus.t7 a_n1986_13878.t16 gnd.t277 sky130_fd_pr__nfet_01v8 ad=1.155 pd=7.33 as=1.155 ps=7.33 w=7 l=0.5
X44 CSoutput.t107 commonsourceibias.t51 gnd.t121 gnd.t24 sky130_fd_pr__nfet_01v8 ad=1.155 pd=7.33 as=2.73 ps=14.78 w=7 l=1
X45 gnd.t120 commonsourceibias.t28 commonsourceibias.t29 gnd.t55 sky130_fd_pr__nfet_01v8 ad=1.155 pd=7.33 as=1.155 ps=7.33 w=7 l=1
X46 a_n1808_13878.t18 a_n1986_13878.t21 a_n1986_13878.t22 vdd.t181 sky130_fd_pr__pfet_01v8 ad=1.485 pd=9.33 as=3.51 ps=18.78 w=9 l=0.5
X47 a_n1986_13878.t42 a_n1986_13878.t41 a_n1808_13878.t17 vdd.t190 sky130_fd_pr__pfet_01v8 ad=1.485 pd=9.33 as=1.485 ps=9.33 w=9 l=0.5
X48 CSoutput.t83 a_n6308_8799.t46 vdd.t167 vdd.t155 sky130_fd_pr__pfet_01v8 ad=1.32 pd=8.33 as=1.32 ps=8.33 w=8 l=0.5
X49 vdd.t168 a_n6308_8799.t47 CSoutput.t82 vdd.t11 sky130_fd_pr__pfet_01v8 ad=1.32 pd=8.33 as=1.32 ps=8.33 w=8 l=0.5
X50 output.t18 outputibias.t9 gnd.t318 gnd.t317 sky130_fd_pr__nfet_01v8 ad=2.34 pd=12.78 as=2.34 ps=12.78 w=6 l=2
X51 vdd.t79 vdd.t77 vdd.t78 vdd.t53 sky130_fd_pr__pfet_01v8 ad=3.51 pd=18.78 as=0 ps=0 w=9 l=0.5
X52 a_n3827_n3924.t56 minus.t8 a_n1986_13878.t46 gnd.t296 sky130_fd_pr__nfet_01v8 ad=1.155 pd=7.33 as=1.155 ps=7.33 w=7 l=0.5
X53 diffpairibias.t19 diffpairibias.t18 gnd.t326 gnd.t325 sky130_fd_pr__nfet_01v8 ad=2.73 pd=14.78 as=2.73 ps=14.78 w=7 l=1
X54 gnd.t252 gnd.t250 plus.t3 gnd.t251 sky130_fd_pr__nfet_01v8 ad=0.165 pd=1.33 as=0.39 ps=2.78 w=1 l=0.5
X55 CSoutput.t104 commonsourceibias.t52 gnd.t119 gnd.t57 sky130_fd_pr__nfet_01v8 ad=1.155 pd=7.33 as=1.155 ps=7.33 w=7 l=1
X56 gnd.t249 gnd.t247 gnd.t248 gnd.t167 sky130_fd_pr__nfet_01v8 ad=2.73 pd=14.78 as=0 ps=0 w=7 l=1
X57 a_n1986_13878.t18 minus.t9 a_n3827_n3924.t51 gnd.t295 sky130_fd_pr__nfet_01v8 ad=1.155 pd=7.33 as=2.73 ps=14.78 w=7 l=0.5
X58 CSoutput.t138 commonsourceibias.t53 gnd.t118 gnd.t79 sky130_fd_pr__nfet_01v8 ad=1.155 pd=7.33 as=1.155 ps=7.33 w=7 l=1
X59 vdd.t165 a_n6308_8799.t48 CSoutput.t81 vdd.t7 sky130_fd_pr__pfet_01v8 ad=1.32 pd=8.33 as=1.32 ps=8.33 w=8 l=0.5
X60 CSoutput.t80 a_n6308_8799.t49 vdd.t166 vdd.t141 sky130_fd_pr__pfet_01v8 ad=1.32 pd=8.33 as=3.12 ps=16.78 w=8 l=0.5
X61 vdd.t228 a_n6308_8799.t50 CSoutput.t79 vdd.t11 sky130_fd_pr__pfet_01v8 ad=1.32 pd=8.33 as=1.32 ps=8.33 w=8 l=0.5
X62 diffpairibias.t17 diffpairibias.t16 gnd.t328 gnd.t327 sky130_fd_pr__nfet_01v8 ad=2.73 pd=14.78 as=2.73 ps=14.78 w=7 l=1
X63 gnd.t246 gnd.t244 gnd.t245 gnd.t167 sky130_fd_pr__nfet_01v8 ad=2.73 pd=14.78 as=0 ps=0 w=7 l=1
X64 CSoutput.t144 a_n1986_8322.t1 sky130_fd_pr__cap_mim_m3_1 l=12 w=12
X65 CSoutput.t78 a_n6308_8799.t51 vdd.t229 vdd.t100 sky130_fd_pr__pfet_01v8 ad=1.32 pd=8.33 as=1.32 ps=8.33 w=8 l=0.5
X66 vdd.t99 a_n6308_8799.t52 CSoutput.t77 vdd.t98 sky130_fd_pr__pfet_01v8 ad=1.32 pd=8.33 as=1.32 ps=8.33 w=8 l=0.5
X67 CSoutput.t106 commonsourceibias.t54 gnd.t117 gnd.t57 sky130_fd_pr__nfet_01v8 ad=1.155 pd=7.33 as=1.155 ps=7.33 w=7 l=1
X68 CSoutput.t76 a_n6308_8799.t53 vdd.t101 vdd.t100 sky130_fd_pr__pfet_01v8 ad=1.32 pd=8.33 as=1.32 ps=8.33 w=8 l=0.5
X69 CSoutput.t75 a_n6308_8799.t54 vdd.t161 vdd.t133 sky130_fd_pr__pfet_01v8 ad=1.32 pd=8.33 as=1.32 ps=8.33 w=8 l=0.5
X70 plus.t2 gnd.t241 gnd.t243 gnd.t242 sky130_fd_pr__nfet_01v8 ad=0.165 pd=1.33 as=0.165 ps=1.33 w=1 l=0.5
X71 vdd.t162 a_n6308_8799.t55 CSoutput.t74 vdd.t108 sky130_fd_pr__pfet_01v8 ad=1.32 pd=8.33 as=1.32 ps=8.33 w=8 l=0.5
X72 gnd.t116 commonsourceibias.t55 CSoutput.t113 gnd.t34 sky130_fd_pr__nfet_01v8 ad=2.73 pd=14.78 as=1.155 ps=7.33 w=7 l=1
X73 output.t15 CSoutput.t145 vdd.t132 gnd.t154 sky130_fd_pr__nfet_01v8 ad=0.825 pd=5.33 as=0.825 ps=5.33 w=5 l=1
X74 gnd.t115 commonsourceibias.t56 CSoutput.t140 gnd.t30 sky130_fd_pr__nfet_01v8 ad=2.73 pd=14.78 as=1.155 ps=7.33 w=7 l=1
X75 a_n6308_8799.t4 plus.t9 a_n3827_n3924.t8 gnd.t138 sky130_fd_pr__nfet_01v8 ad=1.155 pd=7.33 as=1.155 ps=7.33 w=7 l=0.5
X76 CSoutput.t21 commonsourceibias.t57 gnd.t114 gnd.t48 sky130_fd_pr__nfet_01v8 ad=1.155 pd=7.33 as=1.155 ps=7.33 w=7 l=1
X77 CSoutput.t146 a_n1986_8322.t1 sky130_fd_pr__cap_mim_m3_1 l=12 w=12
X78 gnd.t240 gnd.t238 gnd.t239 gnd.t183 sky130_fd_pr__nfet_01v8 ad=2.73 pd=14.78 as=0 ps=0 w=7 l=1
X79 a_n3827_n3924.t22 diffpairibias.t22 gnd.t301 gnd.t300 sky130_fd_pr__nfet_01v8 ad=2.73 pd=14.78 as=2.73 ps=14.78 w=7 l=1
X80 vdd.t1 a_n6308_8799.t56 CSoutput.t73 vdd.t0 sky130_fd_pr__pfet_01v8 ad=1.32 pd=8.33 as=1.32 ps=8.33 w=8 l=0.5
X81 vdd.t3 a_n6308_8799.t57 CSoutput.t72 vdd.t2 sky130_fd_pr__pfet_01v8 ad=1.32 pd=8.33 as=1.32 ps=8.33 w=8 l=0.5
X82 a_n6308_8799.t31 a_n1986_13878.t51 a_n1986_8322.t19 vdd.t204 sky130_fd_pr__pfet_01v8 ad=1.485 pd=9.33 as=1.485 ps=9.33 w=9 l=0.5
X83 a_n1986_13878.t30 a_n1986_13878.t29 a_n1808_13878.t16 vdd.t214 sky130_fd_pr__pfet_01v8 ad=1.485 pd=9.33 as=1.485 ps=9.33 w=9 l=0.5
X84 a_n3827_n3924.t53 minus.t10 a_n1986_13878.t43 gnd.t313 sky130_fd_pr__nfet_01v8 ad=1.155 pd=7.33 as=1.155 ps=7.33 w=7 l=0.5
X85 CSoutput.t101 commonsourceibias.t58 gnd.t113 gnd.t18 sky130_fd_pr__nfet_01v8 ad=1.155 pd=7.33 as=1.155 ps=7.33 w=7 l=1
X86 a_n1986_13878.t38 a_n1986_13878.t37 a_n1808_13878.t15 vdd.t177 sky130_fd_pr__pfet_01v8 ad=3.51 pd=18.78 as=1.485 ps=9.33 w=9 l=0.5
X87 vdd.t163 a_n6308_8799.t58 CSoutput.t71 vdd.t108 sky130_fd_pr__pfet_01v8 ad=1.32 pd=8.33 as=1.32 ps=8.33 w=8 l=0.5
X88 a_n3827_n3924.t28 plus.t10 a_n6308_8799.t10 gnd.t290 sky130_fd_pr__nfet_01v8 ad=1.155 pd=7.33 as=1.155 ps=7.33 w=7 l=0.5
X89 a_n1986_13878.t1 minus.t11 a_n3827_n3924.t1 gnd.t5 sky130_fd_pr__nfet_01v8 ad=1.155 pd=7.33 as=1.155 ps=7.33 w=7 l=0.5
X90 outputibias.t7 outputibias.t6 gnd.t334 gnd.t333 sky130_fd_pr__nfet_01v8 ad=2.34 pd=12.78 as=2.34 ps=12.78 w=6 l=2
X91 CSoutput.t122 commonsourceibias.t59 gnd.t112 gnd.t28 sky130_fd_pr__nfet_01v8 ad=1.155 pd=7.33 as=1.155 ps=7.33 w=7 l=1
X92 gnd.t111 commonsourceibias.t60 CSoutput.t13 gnd.t42 sky130_fd_pr__nfet_01v8 ad=1.155 pd=7.33 as=1.155 ps=7.33 w=7 l=1
X93 commonsourceibias.t17 commonsourceibias.t16 gnd.t110 gnd.t36 sky130_fd_pr__nfet_01v8 ad=1.155 pd=7.33 as=1.155 ps=7.33 w=7 l=1
X94 CSoutput.t70 a_n6308_8799.t59 vdd.t164 vdd.t124 sky130_fd_pr__pfet_01v8 ad=1.32 pd=8.33 as=1.32 ps=8.33 w=8 l=0.5
X95 vdd.t119 a_n6308_8799.t60 CSoutput.t69 vdd.t118 sky130_fd_pr__pfet_01v8 ad=3.12 pd=16.78 as=1.32 ps=8.33 w=8 l=0.5
X96 gnd.t237 gnd.t235 gnd.t236 gnd.t179 sky130_fd_pr__nfet_01v8 ad=2.73 pd=14.78 as=0 ps=0 w=7 l=1
X97 a_n3827_n3924.t27 minus.t12 a_n1986_13878.t7 gnd.t291 sky130_fd_pr__nfet_01v8 ad=2.73 pd=14.78 as=1.155 ps=7.33 w=7 l=0.5
X98 diffpairibias.t15 diffpairibias.t14 gnd.t305 gnd.t304 sky130_fd_pr__nfet_01v8 ad=2.73 pd=14.78 as=2.73 ps=14.78 w=7 l=1
X99 outputibias.t5 outputibias.t4 gnd.t11 gnd.t10 sky130_fd_pr__nfet_01v8 ad=2.34 pd=12.78 as=2.34 ps=12.78 w=6 l=2
X100 vdd.t120 a_n6308_8799.t61 CSoutput.t68 vdd.t7 sky130_fd_pr__pfet_01v8 ad=1.32 pd=8.33 as=1.32 ps=8.33 w=8 l=0.5
X101 vdd.t76 vdd.t74 vdd.t75 vdd.t61 sky130_fd_pr__pfet_01v8 ad=3.51 pd=18.78 as=0 ps=0 w=9 l=0.5
X102 vdd.t73 vdd.t70 vdd.t72 vdd.t71 sky130_fd_pr__pfet_01v8 ad=3.51 pd=18.78 as=0 ps=0 w=9 l=0.5
X103 vdd.t69 vdd.t67 vdd.t68 vdd.t57 sky130_fd_pr__pfet_01v8 ad=3.51 pd=18.78 as=0 ps=0 w=9 l=0.5
X104 vdd.t66 vdd.t64 vdd.t65 vdd.t18 sky130_fd_pr__pfet_01v8 ad=3.51 pd=18.78 as=0 ps=0 w=9 l=0.5
X105 a_n1986_8322.t9 a_n1986_13878.t52 vdd.t213 vdd.t212 sky130_fd_pr__pfet_01v8 ad=1.485 pd=9.33 as=1.485 ps=9.33 w=9 l=0.5
X106 vdd.t211 a_n1986_13878.t53 a_n1986_8322.t8 vdd.t210 sky130_fd_pr__pfet_01v8 ad=1.485 pd=9.33 as=1.485 ps=9.33 w=9 l=0.5
X107 CSoutput.t14 commonsourceibias.t61 gnd.t109 gnd.t67 sky130_fd_pr__nfet_01v8 ad=1.155 pd=7.33 as=1.155 ps=7.33 w=7 l=1
X108 output.t14 CSoutput.t147 vdd.t116 gnd.t153 sky130_fd_pr__nfet_01v8 ad=0.825 pd=5.33 as=0.825 ps=5.33 w=5 l=1
X109 gnd.t108 commonsourceibias.t14 commonsourceibias.t15 gnd.t26 sky130_fd_pr__nfet_01v8 ad=1.155 pd=7.33 as=1.155 ps=7.33 w=7 l=1
X110 CSoutput.t67 a_n6308_8799.t62 vdd.t107 vdd.t100 sky130_fd_pr__pfet_01v8 ad=1.32 pd=8.33 as=1.32 ps=8.33 w=8 l=0.5
X111 a_n1986_13878.t5 minus.t13 a_n3827_n3924.t12 gnd.t276 sky130_fd_pr__nfet_01v8 ad=1.155 pd=7.33 as=1.155 ps=7.33 w=7 l=0.5
X112 gnd.t107 commonsourceibias.t62 CSoutput.t124 gnd.t69 sky130_fd_pr__nfet_01v8 ad=1.155 pd=7.33 as=1.155 ps=7.33 w=7 l=1
X113 a_n3827_n3924.t21 diffpairibias.t23 gnd.t312 gnd.t311 sky130_fd_pr__nfet_01v8 ad=2.73 pd=14.78 as=2.73 ps=14.78 w=7 l=1
X114 vdd.t109 a_n6308_8799.t63 CSoutput.t66 vdd.t108 sky130_fd_pr__pfet_01v8 ad=1.32 pd=8.33 as=1.32 ps=8.33 w=8 l=0.5
X115 vdd.t209 a_n1986_13878.t54 a_n1808_13878.t7 vdd.t208 sky130_fd_pr__pfet_01v8 ad=1.485 pd=9.33 as=1.485 ps=9.33 w=9 l=0.5
X116 gnd.t234 gnd.t232 minus.t3 gnd.t233 sky130_fd_pr__nfet_01v8 ad=0.165 pd=1.33 as=0.39 ps=2.78 w=1 l=0.5
X117 a_n3827_n3924.t3 plus.t11 a_n6308_8799.t1 gnd.t133 sky130_fd_pr__nfet_01v8 ad=1.155 pd=7.33 as=1.155 ps=7.33 w=7 l=0.5
X118 commonsourceibias.t13 commonsourceibias.t12 gnd.t106 gnd.t24 sky130_fd_pr__nfet_01v8 ad=1.155 pd=7.33 as=2.73 ps=14.78 w=7 l=1
X119 gnd.t105 commonsourceibias.t63 CSoutput.t141 gnd.t51 sky130_fd_pr__nfet_01v8 ad=1.155 pd=7.33 as=1.155 ps=7.33 w=7 l=1
X120 vdd.t63 vdd.t60 vdd.t62 vdd.t61 sky130_fd_pr__pfet_01v8 ad=3.51 pd=18.78 as=0 ps=0 w=9 l=0.5
X121 gnd.t231 gnd.t229 gnd.t230 gnd.t157 sky130_fd_pr__nfet_01v8 ad=2.73 pd=14.78 as=0 ps=0 w=7 l=1
X122 gnd.t104 commonsourceibias.t10 commonsourceibias.t11 gnd.t22 sky130_fd_pr__nfet_01v8 ad=1.155 pd=7.33 as=1.155 ps=7.33 w=7 l=1
X123 gnd.t228 gnd.t226 gnd.t227 gnd.t179 sky130_fd_pr__nfet_01v8 ad=2.73 pd=14.78 as=0 ps=0 w=7 l=1
X124 vdd.t59 vdd.t56 vdd.t58 vdd.t57 sky130_fd_pr__pfet_01v8 ad=3.51 pd=18.78 as=0 ps=0 w=9 l=0.5
X125 vdd.t224 a_n6308_8799.t64 CSoutput.t65 vdd.t0 sky130_fd_pr__pfet_01v8 ad=1.32 pd=8.33 as=1.32 ps=8.33 w=8 l=0.5
X126 CSoutput.t118 commonsourceibias.t64 gnd.t103 gnd.t48 sky130_fd_pr__nfet_01v8 ad=1.155 pd=7.33 as=1.155 ps=7.33 w=7 l=1
X127 a_n6308_8799.t30 a_n1986_13878.t55 a_n1986_8322.t18 vdd.t182 sky130_fd_pr__pfet_01v8 ad=1.485 pd=9.33 as=1.485 ps=9.33 w=9 l=0.5
X128 a_n1986_8322.t7 a_n1986_13878.t56 vdd.t207 vdd.t206 sky130_fd_pr__pfet_01v8 ad=3.51 pd=18.78 as=1.485 ps=9.33 w=9 l=0.5
X129 vdd.t55 vdd.t52 vdd.t54 vdd.t53 sky130_fd_pr__pfet_01v8 ad=3.51 pd=18.78 as=0 ps=0 w=9 l=0.5
X130 a_n1986_13878.t15 minus.t14 a_n3827_n3924.t43 gnd.t155 sky130_fd_pr__nfet_01v8 ad=1.155 pd=7.33 as=1.155 ps=7.33 w=7 l=0.5
X131 a_n6308_8799.t2 plus.t12 a_n3827_n3924.t4 gnd.t134 sky130_fd_pr__nfet_01v8 ad=1.155 pd=7.33 as=2.73 ps=14.78 w=7 l=0.5
X132 gnd.t102 commonsourceibias.t65 CSoutput.t112 gnd.t32 sky130_fd_pr__nfet_01v8 ad=1.155 pd=7.33 as=1.155 ps=7.33 w=7 l=1
X133 commonsourceibias.t19 commonsourceibias.t18 gnd.t101 gnd.t12 sky130_fd_pr__nfet_01v8 ad=1.155 pd=7.33 as=1.155 ps=7.33 w=7 l=1
X134 vdd.t225 a_n6308_8799.t65 CSoutput.t64 vdd.t118 sky130_fd_pr__pfet_01v8 ad=3.12 pd=16.78 as=1.32 ps=8.33 w=8 l=0.5
X135 a_n1986_13878.t26 a_n1986_13878.t25 a_n1808_13878.t14 vdd.t193 sky130_fd_pr__pfet_01v8 ad=1.485 pd=9.33 as=1.485 ps=9.33 w=9 l=0.5
X136 diffpairibias.t13 diffpairibias.t12 gnd.t285 gnd.t284 sky130_fd_pr__nfet_01v8 ad=2.73 pd=14.78 as=2.73 ps=14.78 w=7 l=1
X137 CSoutput.t63 a_n6308_8799.t66 vdd.t171 vdd.t124 sky130_fd_pr__pfet_01v8 ad=1.32 pd=8.33 as=1.32 ps=8.33 w=8 l=0.5
X138 a_n6308_8799.t23 a_n1986_13878.t57 a_n1986_8322.t17 vdd.t205 sky130_fd_pr__pfet_01v8 ad=1.485 pd=9.33 as=1.485 ps=9.33 w=9 l=0.5
X139 a_n1808_13878.t13 a_n1986_13878.t39 a_n1986_13878.t40 vdd.t204 sky130_fd_pr__pfet_01v8 ad=1.485 pd=9.33 as=1.485 ps=9.33 w=9 l=0.5
X140 gnd.t100 commonsourceibias.t66 CSoutput.t117 gnd.t40 sky130_fd_pr__nfet_01v8 ad=1.155 pd=7.33 as=1.155 ps=7.33 w=7 l=1
X141 a_n3827_n3924.t36 minus.t15 a_n1986_13878.t10 gnd.t299 sky130_fd_pr__nfet_01v8 ad=2.73 pd=14.78 as=1.155 ps=7.33 w=7 l=0.5
X142 a_n3827_n3924.t55 minus.t16 a_n1986_13878.t45 gnd.t314 sky130_fd_pr__nfet_01v8 ad=1.155 pd=7.33 as=1.155 ps=7.33 w=7 l=0.5
X143 a_n6308_8799.t0 plus.t13 a_n3827_n3924.t2 gnd.t132 sky130_fd_pr__nfet_01v8 ad=1.155 pd=7.33 as=1.155 ps=7.33 w=7 l=0.5
X144 gnd.t99 commonsourceibias.t67 CSoutput.t1 gnd.t26 sky130_fd_pr__nfet_01v8 ad=1.155 pd=7.33 as=1.155 ps=7.33 w=7 l=1
X145 vdd.t117 CSoutput.t148 output.t13 gnd.t152 sky130_fd_pr__nfet_01v8 ad=0.825 pd=5.33 as=0.825 ps=5.33 w=5 l=1
X146 output.t12 CSoutput.t149 vdd.t4 gnd.t151 sky130_fd_pr__nfet_01v8 ad=0.825 pd=5.33 as=0.825 ps=5.33 w=5 l=1
X147 vdd.t203 a_n1986_13878.t58 a_n1986_8322.t6 vdd.t202 sky130_fd_pr__pfet_01v8 ad=1.485 pd=9.33 as=3.51 ps=18.78 w=9 l=0.5
X148 a_n1986_13878.t12 minus.t17 a_n3827_n3924.t38 gnd.t293 sky130_fd_pr__nfet_01v8 ad=1.155 pd=7.33 as=1.155 ps=7.33 w=7 l=0.5
X149 gnd.t225 gnd.t223 gnd.t224 gnd.t183 sky130_fd_pr__nfet_01v8 ad=2.73 pd=14.78 as=0 ps=0 w=7 l=1
X150 CSoutput.t62 a_n6308_8799.t67 vdd.t172 vdd.t155 sky130_fd_pr__pfet_01v8 ad=1.32 pd=8.33 as=1.32 ps=8.33 w=8 l=0.5
X151 vdd.t169 a_n6308_8799.t68 CSoutput.t61 vdd.t157 sky130_fd_pr__pfet_01v8 ad=3.12 pd=16.78 as=1.32 ps=8.33 w=8 l=0.5
X152 CSoutput.t109 commonsourceibias.t68 gnd.t98 gnd.t18 sky130_fd_pr__nfet_01v8 ad=1.155 pd=7.33 as=1.155 ps=7.33 w=7 l=1
X153 vdd.t5 CSoutput.t150 output.t11 gnd.t150 sky130_fd_pr__nfet_01v8 ad=0.825 pd=5.33 as=0.825 ps=5.33 w=5 l=1
X154 gnd.t97 commonsourceibias.t69 CSoutput.t116 gnd.t42 sky130_fd_pr__nfet_01v8 ad=1.155 pd=7.33 as=1.155 ps=7.33 w=7 l=1
X155 gnd.t96 commonsourceibias.t70 CSoutput.t103 gnd.t34 sky130_fd_pr__nfet_01v8 ad=2.73 pd=14.78 as=1.155 ps=7.33 w=7 l=1
X156 a_n3827_n3924.t20 diffpairibias.t24 gnd.t308 gnd.t307 sky130_fd_pr__nfet_01v8 ad=2.73 pd=14.78 as=2.73 ps=14.78 w=7 l=1
X157 a_n1986_13878.t14 minus.t18 a_n3827_n3924.t40 gnd.t135 sky130_fd_pr__nfet_01v8 ad=1.155 pd=7.33 as=1.155 ps=7.33 w=7 l=0.5
X158 a_n3827_n3924.t19 diffpairibias.t25 gnd.t7 gnd.t6 sky130_fd_pr__nfet_01v8 ad=2.73 pd=14.78 as=2.73 ps=14.78 w=7 l=1
X159 vdd.t170 a_n6308_8799.t69 CSoutput.t60 vdd.t111 sky130_fd_pr__pfet_01v8 ad=1.32 pd=8.33 as=1.32 ps=8.33 w=8 l=0.5
X160 gnd.t222 gnd.t220 gnd.t221 gnd.t157 sky130_fd_pr__nfet_01v8 ad=2.73 pd=14.78 as=0 ps=0 w=7 l=1
X161 gnd.t219 gnd.t217 minus.t2 gnd.t218 sky130_fd_pr__nfet_01v8 ad=0.165 pd=1.33 as=0.165 ps=1.33 w=1 l=0.5
X162 CSoutput.t59 a_n6308_8799.t70 vdd.t220 vdd.t138 sky130_fd_pr__pfet_01v8 ad=1.32 pd=8.33 as=1.32 ps=8.33 w=8 l=0.5
X163 CSoutput.t58 a_n6308_8799.t71 vdd.t221 vdd.t113 sky130_fd_pr__pfet_01v8 ad=1.32 pd=8.33 as=1.32 ps=8.33 w=8 l=0.5
X164 a_n1986_13878.t3 minus.t19 a_n3827_n3924.t7 gnd.t137 sky130_fd_pr__nfet_01v8 ad=1.155 pd=7.33 as=1.155 ps=7.33 w=7 l=0.5
X165 CSoutput.t136 commonsourceibias.t71 gnd.t95 gnd.t79 sky130_fd_pr__nfet_01v8 ad=1.155 pd=7.33 as=1.155 ps=7.33 w=7 l=1
X166 vdd.t6 CSoutput.t151 output.t10 gnd.t149 sky130_fd_pr__nfet_01v8 ad=0.825 pd=5.33 as=0.825 ps=5.33 w=5 l=1
X167 a_n1808_13878.t2 a_n1986_13878.t59 vdd.t201 vdd.t200 sky130_fd_pr__pfet_01v8 ad=1.485 pd=9.33 as=1.485 ps=9.33 w=9 l=0.5
X168 gnd.t216 gnd.t214 gnd.t215 gnd.t167 sky130_fd_pr__nfet_01v8 ad=2.73 pd=14.78 as=0 ps=0 w=7 l=1
X169 gnd.t94 commonsourceibias.t72 CSoutput.t99 gnd.t51 sky130_fd_pr__nfet_01v8 ad=1.155 pd=7.33 as=1.155 ps=7.33 w=7 l=1
X170 output.t9 CSoutput.t152 vdd.t89 gnd.t148 sky130_fd_pr__nfet_01v8 ad=0.825 pd=5.33 as=0.825 ps=5.33 w=5 l=1
X171 diffpairibias.t11 diffpairibias.t10 gnd.t281 gnd.t280 sky130_fd_pr__nfet_01v8 ad=2.73 pd=14.78 as=2.73 ps=14.78 w=7 l=1
X172 vdd.t51 vdd.t49 vdd.t50 vdd.t33 sky130_fd_pr__pfet_01v8 ad=3.12 pd=16.78 as=0 ps=0 w=8 l=0.5
X173 vdd.t199 a_n1986_13878.t60 a_n1808_13878.t6 vdd.t198 sky130_fd_pr__pfet_01v8 ad=1.485 pd=9.33 as=1.485 ps=9.33 w=9 l=0.5
X174 a_n3827_n3924.t41 plus.t14 a_n6308_8799.t16 gnd.t306 sky130_fd_pr__nfet_01v8 ad=1.155 pd=7.33 as=1.155 ps=7.33 w=7 l=0.5
X175 gnd.t93 commonsourceibias.t73 CSoutput.t3 gnd.t64 sky130_fd_pr__nfet_01v8 ad=1.155 pd=7.33 as=1.155 ps=7.33 w=7 l=1
X176 CSoutput.t127 commonsourceibias.t74 gnd.t92 gnd.t24 sky130_fd_pr__nfet_01v8 ad=1.155 pd=7.33 as=2.73 ps=14.78 w=7 l=1
X177 output.t8 CSoutput.t153 vdd.t90 gnd.t147 sky130_fd_pr__nfet_01v8 ad=0.825 pd=5.33 as=0.825 ps=5.33 w=5 l=1
X178 gnd.t91 commonsourceibias.t75 CSoutput.t128 gnd.t40 sky130_fd_pr__nfet_01v8 ad=1.155 pd=7.33 as=1.155 ps=7.33 w=7 l=1
X179 a_n3827_n3924.t11 minus.t20 a_n1986_13878.t4 gnd.t275 sky130_fd_pr__nfet_01v8 ad=1.155 pd=7.33 as=1.155 ps=7.33 w=7 l=0.5
X180 a_n3827_n3924.t13 plus.t15 a_n6308_8799.t7 gnd.t277 sky130_fd_pr__nfet_01v8 ad=1.155 pd=7.33 as=1.155 ps=7.33 w=7 l=0.5
X181 diffpairibias.t9 diffpairibias.t8 gnd.t298 gnd.t297 sky130_fd_pr__nfet_01v8 ad=2.73 pd=14.78 as=2.73 ps=14.78 w=7 l=1
X182 CSoutput.t57 a_n6308_8799.t72 vdd.t156 vdd.t155 sky130_fd_pr__pfet_01v8 ad=1.32 pd=8.33 as=1.32 ps=8.33 w=8 l=0.5
X183 vdd.t158 a_n6308_8799.t73 CSoutput.t56 vdd.t157 sky130_fd_pr__pfet_01v8 ad=3.12 pd=16.78 as=1.32 ps=8.33 w=8 l=0.5
X184 a_n6308_8799.t18 plus.t16 a_n3827_n3924.t45 gnd.t136 sky130_fd_pr__nfet_01v8 ad=1.155 pd=7.33 as=1.155 ps=7.33 w=7 l=0.5
X185 a_n3827_n3924.t30 minus.t21 a_n1986_13878.t9 gnd.t292 sky130_fd_pr__nfet_01v8 ad=1.155 pd=7.33 as=1.155 ps=7.33 w=7 l=0.5
X186 CSoutput.t154 a_n1986_8322.t0 sky130_fd_pr__cap_mim_m3_1 l=12 w=12
X187 a_n1986_8322.t16 a_n1986_13878.t61 a_n6308_8799.t25 vdd.t173 sky130_fd_pr__pfet_01v8 ad=1.485 pd=9.33 as=1.485 ps=9.33 w=9 l=0.5
X188 gnd.t213 gnd.t211 gnd.t212 gnd.t157 sky130_fd_pr__nfet_01v8 ad=2.73 pd=14.78 as=0 ps=0 w=7 l=1
X189 commonsourceibias.t23 commonsourceibias.t22 gnd.t90 gnd.t79 sky130_fd_pr__nfet_01v8 ad=1.155 pd=7.33 as=1.155 ps=7.33 w=7 l=1
X190 CSoutput.t55 a_n6308_8799.t74 vdd.t110 vdd.t95 sky130_fd_pr__pfet_01v8 ad=1.32 pd=8.33 as=1.32 ps=8.33 w=8 l=0.5
X191 diffpairibias.t7 diffpairibias.t6 gnd.t332 gnd.t331 sky130_fd_pr__nfet_01v8 ad=2.73 pd=14.78 as=2.73 ps=14.78 w=7 l=1
X192 vdd.t112 a_n6308_8799.t75 CSoutput.t54 vdd.t111 sky130_fd_pr__pfet_01v8 ad=1.32 pd=8.33 as=1.32 ps=8.33 w=8 l=0.5
X193 vdd.t197 a_n1986_13878.t62 a_n1986_8322.t5 vdd.t196 sky130_fd_pr__pfet_01v8 ad=1.485 pd=9.33 as=3.51 ps=18.78 w=9 l=0.5
X194 vdd.t8 a_n6308_8799.t76 CSoutput.t53 vdd.t7 sky130_fd_pr__pfet_01v8 ad=1.32 pd=8.33 as=1.32 ps=8.33 w=8 l=0.5
X195 CSoutput.t155 a_n1986_8322.t0 sky130_fd_pr__cap_mim_m3_1 l=12 w=12
X196 output.t17 outputibias.t10 gnd.t1 gnd.t0 sky130_fd_pr__nfet_01v8 ad=2.34 pd=12.78 as=2.34 ps=12.78 w=6 l=2
X197 CSoutput.t111 commonsourceibias.t76 gnd.t89 gnd.t20 sky130_fd_pr__nfet_01v8 ad=1.155 pd=7.33 as=1.155 ps=7.33 w=7 l=1
X198 gnd.t210 gnd.t207 gnd.t209 gnd.t208 sky130_fd_pr__nfet_01v8 ad=1.95 pd=10.78 as=0 ps=0 w=5 l=1
X199 gnd.t206 gnd.t204 gnd.t205 gnd.t179 sky130_fd_pr__nfet_01v8 ad=2.73 pd=14.78 as=0 ps=0 w=7 l=1
X200 commonsourceibias.t21 commonsourceibias.t20 gnd.t88 gnd.t57 sky130_fd_pr__nfet_01v8 ad=1.155 pd=7.33 as=1.155 ps=7.33 w=7 l=1
X201 a_n1808_13878.t5 a_n1986_13878.t63 vdd.t195 vdd.t194 sky130_fd_pr__pfet_01v8 ad=3.51 pd=18.78 as=1.485 ps=9.33 w=9 l=0.5
X202 gnd.t203 gnd.t200 gnd.t202 gnd.t201 sky130_fd_pr__nfet_01v8 ad=2.73 pd=14.78 as=0 ps=0 w=7 l=1
X203 vdd.t9 a_n6308_8799.t77 CSoutput.t52 vdd.t2 sky130_fd_pr__pfet_01v8 ad=1.32 pd=8.33 as=1.32 ps=8.33 w=8 l=0.5
X204 vdd.t48 vdd.t46 vdd.t47 vdd.t14 sky130_fd_pr__pfet_01v8 ad=3.12 pd=16.78 as=0 ps=0 w=8 l=0.5
X205 plus.t1 gnd.t197 gnd.t199 gnd.t198 sky130_fd_pr__nfet_01v8 ad=0.165 pd=1.33 as=0.165 ps=1.33 w=1 l=0.5
X206 CSoutput.t96 commonsourceibias.t77 gnd.t87 gnd.t20 sky130_fd_pr__nfet_01v8 ad=1.155 pd=7.33 as=1.155 ps=7.33 w=7 l=1
X207 vdd.t102 CSoutput.t156 output.t7 gnd.t146 sky130_fd_pr__nfet_01v8 ad=0.825 pd=5.33 as=0.825 ps=5.33 w=5 l=1
X208 output.t16 outputibias.t11 gnd.t316 gnd.t315 sky130_fd_pr__nfet_01v8 ad=2.34 pd=12.78 as=2.34 ps=12.78 w=6 l=2
X209 gnd.t86 commonsourceibias.t78 CSoutput.t2 gnd.t69 sky130_fd_pr__nfet_01v8 ad=1.155 pd=7.33 as=1.155 ps=7.33 w=7 l=1
X210 CSoutput.t51 a_n6308_8799.t78 vdd.t159 vdd.t148 sky130_fd_pr__pfet_01v8 ad=1.32 pd=8.33 as=1.32 ps=8.33 w=8 l=0.5
X211 CSoutput.t50 a_n6308_8799.t79 vdd.t160 vdd.t138 sky130_fd_pr__pfet_01v8 ad=1.32 pd=8.33 as=1.32 ps=8.33 w=8 l=0.5
X212 gnd.t196 gnd.t194 minus.t1 gnd.t195 sky130_fd_pr__nfet_01v8 ad=0.39 pd=2.78 as=0.165 ps=1.33 w=1 l=0.5
X213 CSoutput.t131 commonsourceibias.t79 gnd.t85 gnd.t28 sky130_fd_pr__nfet_01v8 ad=1.155 pd=7.33 as=1.155 ps=7.33 w=7 l=1
X214 gnd.t193 gnd.t190 gnd.t192 gnd.t191 sky130_fd_pr__nfet_01v8 ad=2.73 pd=14.78 as=0 ps=0 w=7 l=0.5
X215 gnd.t84 commonsourceibias.t24 commonsourceibias.t25 gnd.t30 sky130_fd_pr__nfet_01v8 ad=2.73 pd=14.78 as=1.155 ps=7.33 w=7 l=1
X216 gnd.t83 commonsourceibias.t80 CSoutput.t119 gnd.t34 sky130_fd_pr__nfet_01v8 ad=2.73 pd=14.78 as=1.155 ps=7.33 w=7 l=1
X217 vdd.t45 vdd.t43 vdd.t44 vdd.t33 sky130_fd_pr__pfet_01v8 ad=3.12 pd=16.78 as=0 ps=0 w=8 l=0.5
X218 gnd.t189 gnd.t186 gnd.t188 gnd.t187 sky130_fd_pr__nfet_01v8 ad=2.73 pd=14.78 as=0 ps=0 w=7 l=0.5
X219 gnd.t185 gnd.t182 gnd.t184 gnd.t183 sky130_fd_pr__nfet_01v8 ad=2.73 pd=14.78 as=0 ps=0 w=7 l=1
X220 CSoutput.t0 commonsourceibias.t81 gnd.t82 gnd.t67 sky130_fd_pr__nfet_01v8 ad=1.155 pd=7.33 as=1.155 ps=7.33 w=7 l=1
X221 gnd.t81 commonsourceibias.t82 CSoutput.t16 gnd.t26 sky130_fd_pr__nfet_01v8 ad=1.155 pd=7.33 as=1.155 ps=7.33 w=7 l=1
X222 CSoutput.t137 commonsourceibias.t83 gnd.t80 gnd.t79 sky130_fd_pr__nfet_01v8 ad=1.155 pd=7.33 as=1.155 ps=7.33 w=7 l=1
X223 a_n1986_8322.t15 a_n1986_13878.t64 a_n6308_8799.t27 vdd.t193 sky130_fd_pr__pfet_01v8 ad=1.485 pd=9.33 as=1.485 ps=9.33 w=9 l=0.5
X224 vdd.t192 a_n1986_13878.t65 a_n1986_8322.t4 vdd.t191 sky130_fd_pr__pfet_01v8 ad=1.485 pd=9.33 as=1.485 ps=9.33 w=9 l=0.5
X225 CSoutput.t49 a_n6308_8799.t80 vdd.t139 vdd.t138 sky130_fd_pr__pfet_01v8 ad=1.32 pd=8.33 as=1.32 ps=8.33 w=8 l=0.5
X226 commonsourceibias.t27 commonsourceibias.t26 gnd.t78 gnd.t18 sky130_fd_pr__nfet_01v8 ad=1.155 pd=7.33 as=1.155 ps=7.33 w=7 l=1
X227 a_n3827_n3924.t18 diffpairibias.t26 gnd.t9 gnd.t8 sky130_fd_pr__nfet_01v8 ad=2.73 pd=14.78 as=2.73 ps=14.78 w=7 l=1
X228 CSoutput.t48 a_n6308_8799.t81 vdd.t140 vdd.t129 sky130_fd_pr__pfet_01v8 ad=1.32 pd=8.33 as=3.12 ps=16.78 w=8 l=0.5
X229 vdd.t145 a_n6308_8799.t82 CSoutput.t47 vdd.t144 sky130_fd_pr__pfet_01v8 ad=1.32 pd=8.33 as=1.32 ps=8.33 w=8 l=0.5
X230 CSoutput.t129 commonsourceibias.t84 gnd.t77 gnd.t38 sky130_fd_pr__nfet_01v8 ad=1.155 pd=7.33 as=1.155 ps=7.33 w=7 l=1
X231 gnd.t76 commonsourceibias.t85 CSoutput.t19 gnd.t14 sky130_fd_pr__nfet_01v8 ad=1.155 pd=7.33 as=1.155 ps=7.33 w=7 l=1
X232 vdd.t147 a_n6308_8799.t83 CSoutput.t46 vdd.t146 sky130_fd_pr__pfet_01v8 ad=1.32 pd=8.33 as=1.32 ps=8.33 w=8 l=0.5
X233 vdd.t123 a_n6308_8799.t84 CSoutput.t45 vdd.t122 sky130_fd_pr__pfet_01v8 ad=1.32 pd=8.33 as=1.32 ps=8.33 w=8 l=0.5
X234 gnd.t75 commonsourceibias.t86 CSoutput.t143 gnd.t55 sky130_fd_pr__nfet_01v8 ad=1.155 pd=7.33 as=1.155 ps=7.33 w=7 l=1
X235 CSoutput.t115 commonsourceibias.t87 gnd.t74 gnd.t38 sky130_fd_pr__nfet_01v8 ad=1.155 pd=7.33 as=1.155 ps=7.33 w=7 l=1
X236 CSoutput.t114 commonsourceibias.t88 gnd.t73 gnd.t12 sky130_fd_pr__nfet_01v8 ad=1.155 pd=7.33 as=1.155 ps=7.33 w=7 l=1
X237 gnd.t72 commonsourceibias.t89 CSoutput.t133 gnd.t30 sky130_fd_pr__nfet_01v8 ad=2.73 pd=14.78 as=1.155 ps=7.33 w=7 l=1
X238 vdd.t42 vdd.t39 vdd.t41 vdd.t40 sky130_fd_pr__pfet_01v8 ad=3.51 pd=18.78 as=0 ps=0 w=9 l=0.5
X239 a_n3827_n3924.t49 plus.t17 a_n6308_8799.t21 gnd.t313 sky130_fd_pr__nfet_01v8 ad=1.155 pd=7.33 as=1.155 ps=7.33 w=7 l=0.5
X240 gnd.t181 gnd.t178 gnd.t180 gnd.t179 sky130_fd_pr__nfet_01v8 ad=2.73 pd=14.78 as=0 ps=0 w=7 l=1
X241 a_n1808_13878.t12 a_n1986_13878.t35 a_n1986_13878.t36 vdd.t185 sky130_fd_pr__pfet_01v8 ad=1.485 pd=9.33 as=1.485 ps=9.33 w=9 l=0.5
X242 a_n3827_n3924.t26 minus.t22 a_n1986_13878.t6 gnd.t290 sky130_fd_pr__nfet_01v8 ad=1.155 pd=7.33 as=1.155 ps=7.33 w=7 l=0.5
X243 a_n6308_8799.t35 plus.t18 a_n3827_n3924.t52 gnd.t5 sky130_fd_pr__nfet_01v8 ad=1.155 pd=7.33 as=1.155 ps=7.33 w=7 l=0.5
X244 a_n1986_8322.t14 a_n1986_13878.t66 a_n6308_8799.t29 vdd.t190 sky130_fd_pr__pfet_01v8 ad=1.485 pd=9.33 as=1.485 ps=9.33 w=9 l=0.5
X245 diffpairibias.t5 diffpairibias.t4 gnd.t322 gnd.t321 sky130_fd_pr__nfet_01v8 ad=2.73 pd=14.78 as=2.73 ps=14.78 w=7 l=1
X246 CSoutput.t126 commonsourceibias.t90 gnd.t71 gnd.t48 sky130_fd_pr__nfet_01v8 ad=1.155 pd=7.33 as=1.155 ps=7.33 w=7 l=1
X247 gnd.t70 commonsourceibias.t91 CSoutput.t134 gnd.t69 sky130_fd_pr__nfet_01v8 ad=1.155 pd=7.33 as=1.155 ps=7.33 w=7 l=1
X248 a_n6308_8799.t6 plus.t19 a_n3827_n3924.t10 gnd.t4 sky130_fd_pr__nfet_01v8 ad=1.155 pd=7.33 as=1.155 ps=7.33 w=7 l=0.5
X249 a_n3827_n3924.t46 minus.t23 a_n1986_13878.t17 gnd.t294 sky130_fd_pr__nfet_01v8 ad=1.155 pd=7.33 as=1.155 ps=7.33 w=7 l=0.5
X250 output.t6 CSoutput.t157 vdd.t103 gnd.t145 sky130_fd_pr__nfet_01v8 ad=0.825 pd=5.33 as=0.825 ps=5.33 w=5 l=1
X251 CSoutput.t12 commonsourceibias.t92 gnd.t68 gnd.t67 sky130_fd_pr__nfet_01v8 ad=1.155 pd=7.33 as=1.155 ps=7.33 w=7 l=1