* NGSPICE file created from opamp.ext - technology: sky130A

.subckt opamp output vdd plus minus commonsourceibias outputibias diffpairibias gnd CSoutput
Cload output gnd 0.0p
X0 gnd.t313 gnd.t310 gnd.t312 gnd.t311 sky130_fd_pr__nfet_01v8_lvt ad=1.95 pd=10.78 as=0 ps=0 w=5 l=1
X1 gnd.t179 commonsourceibias.t46 commonsourceibias.t47 gnd.t23 sky130_fd_pr__nfet_01v8 ad=1.155 pd=7.33 as=1.155 ps=7.33 w=7 l=1
X2 vdd.t150 a_n5644_8799.t32 CSoutput.t0 vdd.t97 sky130_fd_pr__pfet_01v8_lvt ad=1.32 pd=8.33 as=1.32 ps=8.33 w=8 l=0.5
X3 a_n1986_8322.t11 a_n1986_13878.t44 vdd.t10 vdd.t9 sky130_fd_pr__pfet_01v8_lvt ad=1.485 pd=9.33 as=1.485 ps=9.33 w=9 l=0.5
X4 a_n1808_13878.t19 a_n1986_13878.t23 a_n1986_13878.t24 vdd.t5 sky130_fd_pr__pfet_01v8_lvt ad=1.485 pd=9.33 as=3.51 ps=18.78 w=9 l=0.5
X5 commonsourceibias.t45 commonsourceibias.t44 gnd.t7 gnd.t6 sky130_fd_pr__nfet_01v8 ad=1.155 pd=7.33 as=1.155 ps=7.33 w=7 l=1
X6 a_n3827_n3924.t34 diffpairibias.t20 gnd.t107 gnd.t106 sky130_fd_pr__nfet_01v8 ad=2.73 pd=14.78 as=2.73 ps=14.78 w=7 l=1
X7 a_n1986_13878.t20 a_n1986_13878.t19 a_n1808_13878.t18 vdd.t171 sky130_fd_pr__pfet_01v8_lvt ad=1.485 pd=9.33 as=1.485 ps=9.33 w=9 l=0.5
X8 a_n1808_13878.t17 a_n1986_13878.t29 a_n1986_13878.t30 vdd.t172 sky130_fd_pr__pfet_01v8_lvt ad=1.485 pd=9.33 as=1.485 ps=9.33 w=9 l=0.5
X9 vdd.t86 vdd.t84 vdd.t85 vdd.t59 sky130_fd_pr__pfet_01v8_lvt ad=3.51 pd=18.78 as=0 ps=0 w=9 l=0.5
X10 a_n1808_13878.t7 a_n1986_13878.t45 vdd.t187 vdd.t186 sky130_fd_pr__pfet_01v8_lvt ad=1.485 pd=9.33 as=1.485 ps=9.33 w=9 l=0.5
X11 CSoutput.t22 a_n5644_8799.t33 vdd.t149 vdd.t93 sky130_fd_pr__pfet_01v8_lvt ad=1.32 pd=8.33 as=1.32 ps=8.33 w=8 l=0.5
X12 gnd.t125 commonsourceibias.t42 commonsourceibias.t43 gnd.t30 sky130_fd_pr__nfet_01v8 ad=1.155 pd=7.33 as=1.155 ps=7.33 w=7 l=1
X13 gnd.t150 commonsourceibias.t48 CSoutput.t119 gnd.t66 sky130_fd_pr__nfet_01v8 ad=1.155 pd=7.33 as=1.155 ps=7.33 w=7 l=1
X14 commonsourceibias.t41 commonsourceibias.t40 gnd.t80 gnd.t72 sky130_fd_pr__nfet_01v8 ad=1.155 pd=7.33 as=1.155 ps=7.33 w=7 l=1
X15 vdd.t83 vdd.t81 vdd.t82 vdd.t34 sky130_fd_pr__pfet_01v8_lvt ad=3.12 pd=16.78 as=0 ps=0 w=8 l=0.5
X16 minus.t4 gnd.t301 gnd.t303 gnd.t302 sky130_fd_pr__nfet_01v8 ad=0.165 pd=1.33 as=0.165 ps=1.33 w=1 l=0.5
X17 gnd.t306 gnd.t304 plus.t4 gnd.t305 sky130_fd_pr__nfet_01v8 ad=0.39 pd=2.78 as=0.165 ps=1.33 w=1 l=0.5
X18 a_n5644_8799.t27 plus.t5 a_n3827_n3924.t44 gnd.t95 sky130_fd_pr__nfet_01v8 ad=1.155 pd=7.33 as=1.155 ps=7.33 w=7 l=0.5
X19 output.t19 outputibias.t8 gnd.t119 gnd.t118 sky130_fd_pr__nfet_01v8 ad=2.34 pd=12.78 as=2.34 ps=12.78 w=6 l=2
X20 gnd.t309 gnd.t307 gnd.t308 gnd.t227 sky130_fd_pr__nfet_01v8 ad=2.73 pd=14.78 as=0 ps=0 w=7 l=1
X21 a_n1986_8322.t23 a_n1986_13878.t46 a_n5644_8799.t2 vdd.t3 sky130_fd_pr__pfet_01v8_lvt ad=1.485 pd=9.33 as=1.485 ps=9.33 w=9 l=0.5
X22 commonsourceibias.t39 commonsourceibias.t38 gnd.t330 gnd.t40 sky130_fd_pr__nfet_01v8 ad=1.155 pd=7.33 as=1.155 ps=7.33 w=7 l=1
X23 gnd.t101 commonsourceibias.t49 CSoutput.t118 gnd.t36 sky130_fd_pr__nfet_01v8 ad=1.155 pd=7.33 as=1.155 ps=7.33 w=7 l=1
X24 CSoutput.t117 commonsourceibias.t50 gnd.t177 gnd.t38 sky130_fd_pr__nfet_01v8 ad=1.155 pd=7.33 as=1.155 ps=7.33 w=7 l=1
X25 a_n5644_8799.t22 plus.t6 a_n3827_n3924.t39 gnd.t25 sky130_fd_pr__nfet_01v8 ad=1.155 pd=7.33 as=1.155 ps=7.33 w=7 l=0.5
X26 gnd.t300 gnd.t297 gnd.t299 gnd.t298 sky130_fd_pr__nfet_01v8 ad=2.34 pd=12.78 as=0 ps=0 w=6 l=2
X27 CSoutput.t21 a_n5644_8799.t34 vdd.t148 vdd.t106 sky130_fd_pr__pfet_01v8_lvt ad=1.32 pd=8.33 as=3.12 ps=16.78 w=8 l=0.5
X28 vdd.t147 a_n5644_8799.t35 CSoutput.t20 vdd.t124 sky130_fd_pr__pfet_01v8_lvt ad=3.12 pd=16.78 as=1.32 ps=8.33 w=8 l=0.5
X29 gnd.t67 commonsourceibias.t36 commonsourceibias.t37 gnd.t66 sky130_fd_pr__nfet_01v8 ad=1.155 pd=7.33 as=1.155 ps=7.33 w=7 l=1
X30 a_n5644_8799.t5 a_n1986_13878.t47 a_n1986_8322.t22 vdd.t5 sky130_fd_pr__pfet_01v8_lvt ad=1.485 pd=9.33 as=3.51 ps=18.78 w=9 l=0.5
X31 CSoutput.t39 a_n5644_8799.t36 vdd.t146 vdd.t87 sky130_fd_pr__pfet_01v8_lvt ad=1.32 pd=8.33 as=3.12 ps=16.78 w=8 l=0.5
X32 vdd.t145 a_n5644_8799.t37 CSoutput.t38 vdd.t140 sky130_fd_pr__pfet_01v8_lvt ad=1.32 pd=8.33 as=1.32 ps=8.33 w=8 l=0.5
X33 a_n3827_n3924.t7 minus.t5 a_n1986_13878.t7 gnd.t34 sky130_fd_pr__nfet_01v8 ad=1.155 pd=7.33 as=1.155 ps=7.33 w=7 l=0.5
X34 a_n3827_n3924.t33 diffpairibias.t21 gnd.t144 gnd.t143 sky130_fd_pr__nfet_01v8 ad=2.73 pd=14.78 as=2.73 ps=14.78 w=7 l=1
X35 commonsourceibias.t35 commonsourceibias.t34 gnd.t116 gnd.t11 sky130_fd_pr__nfet_01v8 ad=1.155 pd=7.33 as=2.73 ps=14.78 w=7 l=1
X36 a_n1986_13878.t11 minus.t6 a_n3827_n3924.t11 gnd.t44 sky130_fd_pr__nfet_01v8 ad=1.155 pd=7.33 as=1.155 ps=7.33 w=7 l=0.5
X37 a_n3827_n3924.t22 plus.t7 a_n5644_8799.t15 gnd.t10 sky130_fd_pr__nfet_01v8 ad=1.155 pd=7.33 as=1.155 ps=7.33 w=7 l=0.5
X38 a_n3827_n3924.t24 plus.t8 a_n5644_8799.t17 gnd.t8 sky130_fd_pr__nfet_01v8 ad=1.155 pd=7.33 as=1.155 ps=7.33 w=7 l=0.5
X39 a_n3827_n3924.t36 minus.t7 a_n1986_13878.t41 gnd.t146 sky130_fd_pr__nfet_01v8 ad=1.155 pd=7.33 as=1.155 ps=7.33 w=7 l=0.5
X40 CSoutput.t37 a_n5644_8799.t38 vdd.t144 vdd.t102 sky130_fd_pr__pfet_01v8_lvt ad=1.32 pd=8.33 as=1.32 ps=8.33 w=8 l=0.5
X41 vdd.t80 vdd.t78 vdd.t79 vdd.t12 sky130_fd_pr__pfet_01v8_lvt ad=3.12 pd=16.78 as=0 ps=0 w=8 l=0.5
X42 CSoutput.t116 commonsourceibias.t51 gnd.t14 gnd.t13 sky130_fd_pr__nfet_01v8 ad=1.155 pd=7.33 as=2.73 ps=14.78 w=7 l=1
X43 gnd.t151 commonsourceibias.t32 commonsourceibias.t33 gnd.t46 sky130_fd_pr__nfet_01v8 ad=1.155 pd=7.33 as=1.155 ps=7.33 w=7 l=1
X44 output.t15 CSoutput.t120 vdd.t161 gnd.t126 sky130_fd_pr__nfet_01v8_lvt ad=0.825 pd=5.33 as=0.825 ps=5.33 w=5 l=1
X45 output.t18 outputibias.t9 gnd.t158 gnd.t157 sky130_fd_pr__nfet_01v8 ad=2.34 pd=12.78 as=2.34 ps=12.78 w=6 l=2
X46 a_n3827_n3924.t12 minus.t8 a_n1986_13878.t12 gnd.t62 sky130_fd_pr__nfet_01v8 ad=1.155 pd=7.33 as=1.155 ps=7.33 w=7 l=0.5
X47 a_n1808_13878.t16 a_n1986_13878.t25 a_n1986_13878.t26 vdd.t0 sky130_fd_pr__pfet_01v8_lvt ad=1.485 pd=9.33 as=3.51 ps=18.78 w=9 l=0.5
X48 vdd.t143 a_n5644_8799.t39 CSoutput.t28 vdd.t140 sky130_fd_pr__pfet_01v8_lvt ad=1.32 pd=8.33 as=1.32 ps=8.33 w=8 l=0.5
X49 diffpairibias.t19 diffpairibias.t18 gnd.t191 gnd.t190 sky130_fd_pr__nfet_01v8 ad=2.73 pd=14.78 as=2.73 ps=14.78 w=7 l=1
X50 a_n1986_13878.t32 a_n1986_13878.t31 a_n1808_13878.t15 vdd.t4 sky130_fd_pr__pfet_01v8_lvt ad=1.485 pd=9.33 as=1.485 ps=9.33 w=9 l=0.5
X51 CSoutput.t27 a_n5644_8799.t40 vdd.t142 vdd.t118 sky130_fd_pr__pfet_01v8_lvt ad=1.32 pd=8.33 as=1.32 ps=8.33 w=8 l=0.5
X52 vdd.t77 vdd.t75 vdd.t76 vdd.t44 sky130_fd_pr__pfet_01v8_lvt ad=3.51 pd=18.78 as=0 ps=0 w=9 l=0.5
X53 gnd.t296 gnd.t295 plus.t3 gnd.t219 sky130_fd_pr__nfet_01v8 ad=0.165 pd=1.33 as=0.165 ps=1.33 w=1 l=0.5
X54 CSoutput.t115 commonsourceibias.t52 gnd.t100 gnd.t17 sky130_fd_pr__nfet_01v8 ad=1.155 pd=7.33 as=1.155 ps=7.33 w=7 l=1
X55 gnd.t294 gnd.t292 gnd.t293 gnd.t207 sky130_fd_pr__nfet_01v8 ad=2.73 pd=14.78 as=0 ps=0 w=7 l=1
X56 gnd.t291 gnd.t289 gnd.t290 gnd.t219 sky130_fd_pr__nfet_01v8 ad=2.73 pd=14.78 as=0 ps=0 w=7 l=0.5
X57 CSoutput.t114 commonsourceibias.t53 gnd.t183 gnd.t21 sky130_fd_pr__nfet_01v8 ad=1.155 pd=7.33 as=1.155 ps=7.33 w=7 l=1
X58 minus.t3 gnd.t286 gnd.t288 gnd.t287 sky130_fd_pr__nfet_01v8 ad=0.165 pd=1.33 as=0.165 ps=1.33 w=1 l=0.5
X59 diffpairibias.t17 diffpairibias.t16 gnd.t109 gnd.t108 sky130_fd_pr__nfet_01v8 ad=2.73 pd=14.78 as=2.73 ps=14.78 w=7 l=1
X60 gnd.t285 gnd.t283 gnd.t284 gnd.t207 sky130_fd_pr__nfet_01v8 ad=2.73 pd=14.78 as=0 ps=0 w=7 l=1
X61 vdd.t74 vdd.t72 vdd.t73 vdd.t23 sky130_fd_pr__pfet_01v8_lvt ad=3.12 pd=16.78 as=0 ps=0 w=8 l=0.5
X62 CSoutput.t121 a_n1986_8322.t3 sky130_fd_pr__cap_mim_m3_1 l=12 w=12
X63 vdd.t141 a_n5644_8799.t41 CSoutput.t26 vdd.t140 sky130_fd_pr__pfet_01v8_lvt ad=1.32 pd=8.33 as=1.32 ps=8.33 w=8 l=0.5
X64 CSoutput.t113 commonsourceibias.t54 gnd.t18 gnd.t17 sky130_fd_pr__nfet_01v8 ad=1.155 pd=7.33 as=1.155 ps=7.33 w=7 l=1
X65 vdd.t139 a_n5644_8799.t42 CSoutput.t12 vdd.t115 sky130_fd_pr__pfet_01v8_lvt ad=1.32 pd=8.33 as=1.32 ps=8.33 w=8 l=0.5
X66 CSoutput.t11 a_n5644_8799.t43 vdd.t138 vdd.t87 sky130_fd_pr__pfet_01v8_lvt ad=1.32 pd=8.33 as=3.12 ps=16.78 w=8 l=0.5
X67 gnd.t317 commonsourceibias.t55 CSoutput.t112 gnd.t122 sky130_fd_pr__nfet_01v8 ad=2.73 pd=14.78 as=1.155 ps=7.33 w=7 l=1
X68 vdd.t137 a_n5644_8799.t44 CSoutput.t3 vdd.t91 sky130_fd_pr__pfet_01v8_lvt ad=1.32 pd=8.33 as=1.32 ps=8.33 w=8 l=0.5
X69 gnd.t153 commonsourceibias.t56 CSoutput.t111 gnd.t55 sky130_fd_pr__nfet_01v8 ad=2.73 pd=14.78 as=1.155 ps=7.33 w=7 l=1
X70 a_n5644_8799.t21 plus.t9 a_n3827_n3924.t38 gnd.t133 sky130_fd_pr__nfet_01v8 ad=1.155 pd=7.33 as=1.155 ps=7.33 w=7 l=0.5
X71 CSoutput.t110 commonsourceibias.t57 gnd.t170 gnd.t169 sky130_fd_pr__nfet_01v8 ad=1.155 pd=7.33 as=1.155 ps=7.33 w=7 l=1
X72 CSoutput.t122 a_n1986_8322.t1 sky130_fd_pr__cap_mim_m3_1 l=12 w=12
X73 gnd.t282 gnd.t280 gnd.t281 gnd.t227 sky130_fd_pr__nfet_01v8 ad=2.73 pd=14.78 as=0 ps=0 w=7 l=1
X74 CSoutput.t2 a_n5644_8799.t45 vdd.t136 vdd.t102 sky130_fd_pr__pfet_01v8_lvt ad=1.32 pd=8.33 as=1.32 ps=8.33 w=8 l=0.5
X75 CSoutput.t1 a_n5644_8799.t46 vdd.t135 vdd.t128 sky130_fd_pr__pfet_01v8_lvt ad=1.32 pd=8.33 as=1.32 ps=8.33 w=8 l=0.5
X76 output.t14 CSoutput.t123 vdd.t157 gnd.t49 sky130_fd_pr__nfet_01v8_lvt ad=0.825 pd=5.33 as=0.825 ps=5.33 w=5 l=1
X77 a_n3827_n3924.t32 diffpairibias.t22 gnd.t54 gnd.t53 sky130_fd_pr__nfet_01v8 ad=2.73 pd=14.78 as=2.73 ps=14.78 w=7 l=1
X78 CSoutput.t45 a_n5644_8799.t47 vdd.t134 vdd.t128 sky130_fd_pr__pfet_01v8_lvt ad=1.32 pd=8.33 as=1.32 ps=8.33 w=8 l=0.5
X79 a_n3827_n3924.t8 minus.t9 a_n1986_13878.t8 gnd.t35 sky130_fd_pr__nfet_01v8 ad=1.155 pd=7.33 as=1.155 ps=7.33 w=7 l=0.5
X80 CSoutput.t109 commonsourceibias.t58 gnd.t324 gnd.t86 sky130_fd_pr__nfet_01v8 ad=1.155 pd=7.33 as=1.155 ps=7.33 w=7 l=1
X81 vdd.t133 a_n5644_8799.t48 CSoutput.t44 vdd.t126 sky130_fd_pr__pfet_01v8_lvt ad=1.32 pd=8.33 as=1.32 ps=8.33 w=8 l=0.5
X82 a_n3827_n3924.t43 plus.t10 a_n5644_8799.t26 gnd.t43 sky130_fd_pr__nfet_01v8 ad=1.155 pd=7.33 as=1.155 ps=7.33 w=7 l=0.5
X83 a_n1986_13878.t6 minus.t10 a_n3827_n3924.t6 gnd.t28 sky130_fd_pr__nfet_01v8 ad=1.155 pd=7.33 as=1.155 ps=7.33 w=7 l=0.5
X84 outputibias.t7 outputibias.t6 gnd.t58 gnd.t57 sky130_fd_pr__nfet_01v8 ad=2.34 pd=12.78 as=2.34 ps=12.78 w=6 l=2
X85 a_n1986_13878.t16 a_n1986_13878.t15 a_n1808_13878.t14 vdd.t3 sky130_fd_pr__pfet_01v8_lvt ad=1.485 pd=9.33 as=1.485 ps=9.33 w=9 l=0.5
X86 CSoutput.t108 commonsourceibias.t59 gnd.t194 gnd.t6 sky130_fd_pr__nfet_01v8 ad=1.155 pd=7.33 as=1.155 ps=7.33 w=7 l=1
X87 gnd.t318 commonsourceibias.t60 CSoutput.t107 gnd.t91 sky130_fd_pr__nfet_01v8 ad=1.155 pd=7.33 as=1.155 ps=7.33 w=7 l=1
X88 commonsourceibias.t31 commonsourceibias.t30 gnd.t322 gnd.t38 sky130_fd_pr__nfet_01v8 ad=1.155 pd=7.33 as=1.155 ps=7.33 w=7 l=1
X89 a_n1986_13878.t34 a_n1986_13878.t33 a_n1808_13878.t13 vdd.t6 sky130_fd_pr__pfet_01v8_lvt ad=3.51 pd=18.78 as=1.485 ps=9.33 w=9 l=0.5
X90 vdd.t132 a_n5644_8799.t49 CSoutput.t43 vdd.t124 sky130_fd_pr__pfet_01v8_lvt ad=3.12 pd=16.78 as=1.32 ps=8.33 w=8 l=0.5
X91 a_n5644_8799.t3 a_n1986_13878.t48 a_n1986_8322.t21 vdd.t2 sky130_fd_pr__pfet_01v8_lvt ad=1.485 pd=9.33 as=1.485 ps=9.33 w=9 l=0.5
X92 gnd.t279 gnd.t277 gnd.t278 gnd.t223 sky130_fd_pr__nfet_01v8 ad=2.73 pd=14.78 as=0 ps=0 w=7 l=1
X93 vdd.t131 a_n5644_8799.t50 CSoutput.t8 vdd.t126 sky130_fd_pr__pfet_01v8_lvt ad=1.32 pd=8.33 as=1.32 ps=8.33 w=8 l=0.5
X94 a_n3827_n3924.t5 minus.t11 a_n1986_13878.t5 gnd.t27 sky130_fd_pr__nfet_01v8 ad=2.73 pd=14.78 as=1.155 ps=7.33 w=7 l=0.5
X95 diffpairibias.t15 diffpairibias.t14 gnd.t52 gnd.t51 sky130_fd_pr__nfet_01v8 ad=2.73 pd=14.78 as=2.73 ps=14.78 w=7 l=1
X96 outputibias.t5 outputibias.t4 gnd.t20 gnd.t19 sky130_fd_pr__nfet_01v8 ad=2.34 pd=12.78 as=2.34 ps=12.78 w=6 l=2
X97 vdd.t71 vdd.t69 vdd.t70 vdd.t23 sky130_fd_pr__pfet_01v8_lvt ad=3.12 pd=16.78 as=0 ps=0 w=8 l=0.5
X98 vdd.t130 a_n5644_8799.t51 CSoutput.t7 vdd.t115 sky130_fd_pr__pfet_01v8_lvt ad=1.32 pd=8.33 as=1.32 ps=8.33 w=8 l=0.5
X99 vdd.t68 vdd.t66 vdd.t67 vdd.t52 sky130_fd_pr__pfet_01v8_lvt ad=3.51 pd=18.78 as=0 ps=0 w=9 l=0.5
X100 CSoutput.t106 commonsourceibias.t61 gnd.t124 gnd.t40 sky130_fd_pr__nfet_01v8 ad=1.155 pd=7.33 as=1.155 ps=7.33 w=7 l=1
X101 gnd.t78 commonsourceibias.t28 commonsourceibias.t29 gnd.t32 sky130_fd_pr__nfet_01v8 ad=1.155 pd=7.33 as=1.155 ps=7.33 w=7 l=1
X102 vdd.t65 vdd.t62 vdd.t64 vdd.t63 sky130_fd_pr__pfet_01v8_lvt ad=3.51 pd=18.78 as=0 ps=0 w=9 l=0.5
X103 a_n1986_13878.t4 minus.t12 a_n3827_n3924.t4 gnd.t26 sky130_fd_pr__nfet_01v8 ad=1.155 pd=7.33 as=1.155 ps=7.33 w=7 l=0.5
X104 gnd.t29 commonsourceibias.t62 CSoutput.t105 gnd.t23 sky130_fd_pr__nfet_01v8 ad=1.155 pd=7.33 as=1.155 ps=7.33 w=7 l=1
X105 output.t13 CSoutput.t124 vdd.t155 gnd.t50 sky130_fd_pr__nfet_01v8_lvt ad=0.825 pd=5.33 as=0.825 ps=5.33 w=5 l=1
X106 a_n3827_n3924.t31 diffpairibias.t23 gnd.t1 gnd.t0 sky130_fd_pr__nfet_01v8 ad=2.73 pd=14.78 as=2.73 ps=14.78 w=7 l=1
X107 vdd.t61 vdd.t58 vdd.t60 vdd.t59 sky130_fd_pr__pfet_01v8_lvt ad=3.51 pd=18.78 as=0 ps=0 w=9 l=0.5
X108 vdd.t154 CSoutput.t125 output.t12 gnd.t134 sky130_fd_pr__nfet_01v8_lvt ad=0.825 pd=5.33 as=0.825 ps=5.33 w=5 l=1
X109 vdd.t199 a_n1986_13878.t49 a_n1986_8322.t10 vdd.t198 sky130_fd_pr__pfet_01v8_lvt ad=1.485 pd=9.33 as=1.485 ps=9.33 w=9 l=0.5
X110 vdd.t57 vdd.t55 vdd.t56 vdd.t48 sky130_fd_pr__pfet_01v8_lvt ad=3.51 pd=18.78 as=0 ps=0 w=9 l=0.5
X111 a_n3827_n3924.t42 plus.t11 a_n5644_8799.t25 gnd.t102 sky130_fd_pr__nfet_01v8 ad=1.155 pd=7.33 as=1.155 ps=7.33 w=7 l=0.5
X112 commonsourceibias.t27 commonsourceibias.t26 gnd.t45 gnd.t13 sky130_fd_pr__nfet_01v8 ad=1.155 pd=7.33 as=2.73 ps=14.78 w=7 l=1
X113 gnd.t326 commonsourceibias.t63 CSoutput.t104 gnd.t97 sky130_fd_pr__nfet_01v8 ad=1.155 pd=7.33 as=1.155 ps=7.33 w=7 l=1
X114 CSoutput.t6 a_n5644_8799.t52 vdd.t129 vdd.t128 sky130_fd_pr__pfet_01v8_lvt ad=1.32 pd=8.33 as=1.32 ps=8.33 w=8 l=0.5
X115 a_n1986_8322.t9 a_n1986_13878.t50 vdd.t174 vdd.t173 sky130_fd_pr__pfet_01v8_lvt ad=1.485 pd=9.33 as=1.485 ps=9.33 w=9 l=0.5
X116 gnd.t276 gnd.t274 gnd.t275 gnd.t199 sky130_fd_pr__nfet_01v8 ad=2.73 pd=14.78 as=0 ps=0 w=7 l=1
X117 gnd.t37 commonsourceibias.t24 commonsourceibias.t25 gnd.t36 sky130_fd_pr__nfet_01v8 ad=1.155 pd=7.33 as=1.155 ps=7.33 w=7 l=1
X118 gnd.t273 gnd.t271 gnd.t272 gnd.t223 sky130_fd_pr__nfet_01v8 ad=2.73 pd=14.78 as=0 ps=0 w=7 l=1
X119 vdd.t127 a_n5644_8799.t53 CSoutput.t32 vdd.t126 sky130_fd_pr__pfet_01v8_lvt ad=1.32 pd=8.33 as=1.32 ps=8.33 w=8 l=0.5
X120 vdd.t163 CSoutput.t126 output.t11 gnd.t135 sky130_fd_pr__nfet_01v8_lvt ad=0.825 pd=5.33 as=0.825 ps=5.33 w=5 l=1
X121 vdd.t176 a_n1986_13878.t51 a_n1808_13878.t6 vdd.t175 sky130_fd_pr__pfet_01v8_lvt ad=1.485 pd=9.33 as=1.485 ps=9.33 w=9 l=0.5
X122 CSoutput.t103 commonsourceibias.t64 gnd.t193 gnd.t169 sky130_fd_pr__nfet_01v8 ad=1.155 pd=7.33 as=1.155 ps=7.33 w=7 l=1
X123 a_n1986_13878.t42 minus.t13 a_n3827_n3924.t47 gnd.t172 sky130_fd_pr__nfet_01v8 ad=1.155 pd=7.33 as=1.155 ps=7.33 w=7 l=0.5
X124 a_n5644_8799.t24 plus.t12 a_n3827_n3924.t41 gnd.t145 sky130_fd_pr__nfet_01v8 ad=1.155 pd=7.33 as=2.73 ps=14.78 w=7 l=0.5
X125 gnd.t16 commonsourceibias.t65 CSoutput.t102 gnd.t15 sky130_fd_pr__nfet_01v8 ad=1.155 pd=7.33 as=1.155 ps=7.33 w=7 l=1
X126 commonsourceibias.t23 commonsourceibias.t22 gnd.t99 gnd.t70 sky130_fd_pr__nfet_01v8 ad=1.155 pd=7.33 as=1.155 ps=7.33 w=7 l=1
X127 vdd.t54 vdd.t51 vdd.t53 vdd.t52 sky130_fd_pr__pfet_01v8_lvt ad=3.51 pd=18.78 as=0 ps=0 w=9 l=0.5
X128 diffpairibias.t13 diffpairibias.t12 gnd.t161 gnd.t160 sky130_fd_pr__nfet_01v8 ad=2.73 pd=14.78 as=2.73 ps=14.78 w=7 l=1
X129 vdd.t50 vdd.t47 vdd.t49 vdd.t48 sky130_fd_pr__pfet_01v8_lvt ad=3.51 pd=18.78 as=0 ps=0 w=9 l=0.5
X130 vdd.t125 a_n5644_8799.t54 CSoutput.t31 vdd.t124 sky130_fd_pr__pfet_01v8_lvt ad=3.12 pd=16.78 as=1.32 ps=8.33 w=8 l=0.5
X131 a_n5644_8799.t1 a_n1986_13878.t52 a_n1986_8322.t20 vdd.t1 sky130_fd_pr__pfet_01v8_lvt ad=1.485 pd=9.33 as=1.485 ps=9.33 w=9 l=0.5
X132 a_n1986_8322.t8 a_n1986_13878.t53 vdd.t8 vdd.t7 sky130_fd_pr__pfet_01v8_lvt ad=3.51 pd=18.78 as=1.485 ps=9.33 w=9 l=0.5
X133 vdd.t46 vdd.t43 vdd.t45 vdd.t44 sky130_fd_pr__pfet_01v8_lvt ad=3.51 pd=18.78 as=0 ps=0 w=9 l=0.5
X134 plus.t2 gnd.t268 gnd.t270 gnd.t269 sky130_fd_pr__nfet_01v8 ad=0.165 pd=1.33 as=0.165 ps=1.33 w=1 l=0.5
X135 a_n1986_13878.t36 a_n1986_13878.t35 a_n1808_13878.t12 vdd.t169 sky130_fd_pr__pfet_01v8_lvt ad=1.485 pd=9.33 as=1.485 ps=9.33 w=9 l=0.5
X136 gnd.t178 commonsourceibias.t66 CSoutput.t101 gnd.t68 sky130_fd_pr__nfet_01v8 ad=1.155 pd=7.33 as=1.155 ps=7.33 w=7 l=1
X137 gnd.t33 commonsourceibias.t67 CSoutput.t100 gnd.t32 sky130_fd_pr__nfet_01v8 ad=1.155 pd=7.33 as=1.155 ps=7.33 w=7 l=1
X138 a_n5644_8799.t9 a_n1986_13878.t54 a_n1986_8322.t19 vdd.t172 sky130_fd_pr__pfet_01v8_lvt ad=1.485 pd=9.33 as=1.485 ps=9.33 w=9 l=0.5
X139 gnd.t267 gnd.t265 minus.t2 gnd.t266 sky130_fd_pr__nfet_01v8 ad=0.39 pd=2.78 as=0.165 ps=1.33 w=1 l=0.5
X140 a_n1986_13878.t43 minus.t14 a_n3827_n3924.t49 gnd.t131 sky130_fd_pr__nfet_01v8 ad=1.155 pd=7.33 as=1.155 ps=7.33 w=7 l=0.5
X141 vdd.t158 CSoutput.t127 output.t10 gnd.t136 sky130_fd_pr__nfet_01v8_lvt ad=0.825 pd=5.33 as=0.825 ps=5.33 w=5 l=1
X142 a_n1808_13878.t11 a_n1986_13878.t17 a_n1986_13878.t18 vdd.t2 sky130_fd_pr__pfet_01v8_lvt ad=1.485 pd=9.33 as=1.485 ps=9.33 w=9 l=0.5
X143 output.t9 CSoutput.t128 vdd.t167 gnd.t137 sky130_fd_pr__nfet_01v8_lvt ad=0.825 pd=5.33 as=0.825 ps=5.33 w=5 l=1
X144 gnd.t264 gnd.t262 gnd.t263 gnd.t227 sky130_fd_pr__nfet_01v8 ad=2.73 pd=14.78 as=0 ps=0 w=7 l=1
X145 CSoutput.t99 commonsourceibias.t68 gnd.t89 gnd.t86 sky130_fd_pr__nfet_01v8 ad=1.155 pd=7.33 as=1.155 ps=7.33 w=7 l=1
X146 vdd.t180 a_n1986_13878.t55 a_n1986_8322.t7 vdd.t179 sky130_fd_pr__pfet_01v8_lvt ad=1.485 pd=9.33 as=3.51 ps=18.78 w=9 l=0.5
X147 gnd.t192 commonsourceibias.t69 CSoutput.t98 gnd.t91 sky130_fd_pr__nfet_01v8 ad=1.155 pd=7.33 as=1.155 ps=7.33 w=7 l=1
X148 output.t8 CSoutput.t129 vdd.t166 gnd.t138 sky130_fd_pr__nfet_01v8_lvt ad=0.825 pd=5.33 as=0.825 ps=5.33 w=5 l=1
X149 gnd.t123 commonsourceibias.t70 CSoutput.t97 gnd.t122 sky130_fd_pr__nfet_01v8 ad=2.73 pd=14.78 as=1.155 ps=7.33 w=7 l=1
X150 vdd.t42 vdd.t40 vdd.t41 vdd.t34 sky130_fd_pr__pfet_01v8_lvt ad=3.12 pd=16.78 as=0 ps=0 w=8 l=0.5
X151 a_n3827_n3924.t30 diffpairibias.t24 gnd.t113 gnd.t112 sky130_fd_pr__nfet_01v8 ad=2.73 pd=14.78 as=2.73 ps=14.78 w=7 l=1
X152 CSoutput.t24 a_n5644_8799.t55 vdd.t123 vdd.t118 sky130_fd_pr__pfet_01v8_lvt ad=1.32 pd=8.33 as=1.32 ps=8.33 w=8 l=0.5
X153 a_n1986_13878.t37 minus.t15 a_n3827_n3924.t14 gnd.t95 sky130_fd_pr__nfet_01v8 ad=1.155 pd=7.33 as=1.155 ps=7.33 w=7 l=0.5
X154 a_n3827_n3924.t29 diffpairibias.t25 gnd.t5 gnd.t4 sky130_fd_pr__nfet_01v8 ad=2.73 pd=14.78 as=2.73 ps=14.78 w=7 l=1
X155 vdd.t122 a_n5644_8799.t56 CSoutput.t23 vdd.t89 sky130_fd_pr__pfet_01v8_lvt ad=3.12 pd=16.78 as=1.32 ps=8.33 w=8 l=0.5
X156 gnd.t261 gnd.t259 gnd.t260 gnd.t199 sky130_fd_pr__nfet_01v8 ad=2.73 pd=14.78 as=0 ps=0 w=7 l=1
X157 gnd.t258 gnd.t256 minus.t1 gnd.t257 sky130_fd_pr__nfet_01v8 ad=0.165 pd=1.33 as=0.39 ps=2.78 w=1 l=0.5
X158 vdd.t121 a_n5644_8799.t57 CSoutput.t19 vdd.t104 sky130_fd_pr__pfet_01v8_lvt ad=1.32 pd=8.33 as=1.32 ps=8.33 w=8 l=0.5
X159 gnd.t255 gnd.t253 gnd.t254 gnd.t203 sky130_fd_pr__nfet_01v8 ad=2.73 pd=14.78 as=0 ps=0 w=7 l=0.5
X160 a_n1986_13878.t3 minus.t16 a_n3827_n3924.t3 gnd.t25 sky130_fd_pr__nfet_01v8 ad=1.155 pd=7.33 as=1.155 ps=7.33 w=7 l=0.5
X161 CSoutput.t96 commonsourceibias.t71 gnd.t59 gnd.t21 sky130_fd_pr__nfet_01v8 ad=1.155 pd=7.33 as=1.155 ps=7.33 w=7 l=1
X162 gnd.t252 gnd.t249 gnd.t251 gnd.t250 sky130_fd_pr__nfet_01v8_lvt ad=1.95 pd=10.78 as=0 ps=0 w=5 l=1
X163 gnd.t248 gnd.t246 gnd.t247 gnd.t207 sky130_fd_pr__nfet_01v8 ad=2.73 pd=14.78 as=0 ps=0 w=7 l=1
X164 gnd.t98 commonsourceibias.t72 CSoutput.t95 gnd.t97 sky130_fd_pr__nfet_01v8 ad=1.155 pd=7.33 as=1.155 ps=7.33 w=7 l=1
X165 diffpairibias.t11 diffpairibias.t10 gnd.t115 gnd.t114 sky130_fd_pr__nfet_01v8 ad=2.73 pd=14.78 as=2.73 ps=14.78 w=7 l=1
X166 vdd.t165 CSoutput.t130 output.t7 gnd.t139 sky130_fd_pr__nfet_01v8_lvt ad=0.825 pd=5.33 as=0.825 ps=5.33 w=5 l=1
X167 a_n3827_n3924.t40 plus.t13 a_n5644_8799.t23 gnd.t34 sky130_fd_pr__nfet_01v8 ad=1.155 pd=7.33 as=1.155 ps=7.33 w=7 l=0.5
X168 gnd.t105 commonsourceibias.t73 CSoutput.t94 gnd.t66 sky130_fd_pr__nfet_01v8 ad=1.155 pd=7.33 as=1.155 ps=7.33 w=7 l=1
X169 CSoutput.t93 commonsourceibias.t74 gnd.t74 gnd.t13 sky130_fd_pr__nfet_01v8 ad=1.155 pd=7.33 as=2.73 ps=14.78 w=7 l=1
X170 CSoutput.t18 a_n5644_8799.t58 vdd.t120 vdd.t108 sky130_fd_pr__pfet_01v8_lvt ad=1.32 pd=8.33 as=1.32 ps=8.33 w=8 l=0.5
X171 vdd.t39 vdd.t37 vdd.t38 vdd.t19 sky130_fd_pr__pfet_01v8_lvt ad=3.12 pd=16.78 as=0 ps=0 w=8 l=0.5
X172 a_n1808_13878.t5 a_n1986_13878.t56 vdd.t197 vdd.t196 sky130_fd_pr__pfet_01v8_lvt ad=1.485 pd=9.33 as=1.485 ps=9.33 w=9 l=0.5
X173 vdd.t189 a_n1986_13878.t57 a_n1808_13878.t4 vdd.t188 sky130_fd_pr__pfet_01v8_lvt ad=1.485 pd=9.33 as=1.485 ps=9.33 w=9 l=0.5
X174 gnd.t320 commonsourceibias.t75 CSoutput.t92 gnd.t68 sky130_fd_pr__nfet_01v8 ad=1.155 pd=7.33 as=1.155 ps=7.33 w=7 l=1
X175 a_n3827_n3924.t0 minus.t17 a_n1986_13878.t0 gnd.t8 sky130_fd_pr__nfet_01v8 ad=1.155 pd=7.33 as=1.155 ps=7.33 w=7 l=0.5
X176 a_n3827_n3924.t23 plus.t14 a_n5644_8799.t16 gnd.t146 sky130_fd_pr__nfet_01v8 ad=1.155 pd=7.33 as=1.155 ps=7.33 w=7 l=0.5
X177 diffpairibias.t9 diffpairibias.t8 gnd.t187 gnd.t186 sky130_fd_pr__nfet_01v8 ad=2.73 pd=14.78 as=2.73 ps=14.78 w=7 l=1
X178 a_n5644_8799.t10 plus.t15 a_n3827_n3924.t13 gnd.t42 sky130_fd_pr__nfet_01v8 ad=1.155 pd=7.33 as=2.73 ps=14.78 w=7 l=0.5
X179 a_n3827_n3924.t1 minus.t18 a_n1986_13878.t1 gnd.t9 sky130_fd_pr__nfet_01v8 ad=2.73 pd=14.78 as=1.155 ps=7.33 w=7 l=0.5
X180 CSoutput.t131 a_n1986_8322.t2 sky130_fd_pr__cap_mim_m3_1 l=12 w=12
X181 vdd.t36 vdd.t33 vdd.t35 vdd.t34 sky130_fd_pr__pfet_01v8_lvt ad=3.12 pd=16.78 as=0 ps=0 w=8 l=0.5
X182 gnd.t245 gnd.t243 gnd.t244 gnd.t199 sky130_fd_pr__nfet_01v8 ad=2.73 pd=14.78 as=0 ps=0 w=7 l=1
X183 commonsourceibias.t21 commonsourceibias.t20 gnd.t22 gnd.t21 sky130_fd_pr__nfet_01v8 ad=1.155 pd=7.33 as=1.155 ps=7.33 w=7 l=1
X184 diffpairibias.t7 diffpairibias.t6 gnd.t104 gnd.t103 sky130_fd_pr__nfet_01v8 ad=2.73 pd=14.78 as=2.73 ps=14.78 w=7 l=1
X185 CSoutput.t17 a_n5644_8799.t59 vdd.t119 vdd.t118 sky130_fd_pr__pfet_01v8_lvt ad=1.32 pd=8.33 as=1.32 ps=8.33 w=8 l=0.5
X186 vdd.t117 a_n5644_8799.t60 CSoutput.t16 vdd.t89 sky130_fd_pr__pfet_01v8_lvt ad=3.12 pd=16.78 as=1.32 ps=8.33 w=8 l=0.5
X187 CSoutput.t132 a_n1986_8322.t2 sky130_fd_pr__cap_mim_m3_1 l=12 w=12
X188 output.t17 outputibias.t10 gnd.t128 gnd.t127 sky130_fd_pr__nfet_01v8 ad=2.34 pd=12.78 as=2.34 ps=12.78 w=6 l=2
X189 CSoutput.t91 commonsourceibias.t76 gnd.t84 gnd.t64 sky130_fd_pr__nfet_01v8 ad=1.155 pd=7.33 as=1.155 ps=7.33 w=7 l=1
X190 a_n1986_8322.t18 a_n1986_13878.t58 a_n5644_8799.t8 vdd.t171 sky130_fd_pr__pfet_01v8_lvt ad=1.485 pd=9.33 as=1.485 ps=9.33 w=9 l=0.5
X191 gnd.t242 gnd.t240 gnd.t241 gnd.t223 sky130_fd_pr__nfet_01v8 ad=2.73 pd=14.78 as=0 ps=0 w=7 l=1
X192 commonsourceibias.t19 commonsourceibias.t18 gnd.t85 gnd.t17 sky130_fd_pr__nfet_01v8 ad=1.155 pd=7.33 as=1.155 ps=7.33 w=7 l=1
X193 vdd.t116 a_n5644_8799.t61 CSoutput.t15 vdd.t115 sky130_fd_pr__pfet_01v8_lvt ad=1.32 pd=8.33 as=1.32 ps=8.33 w=8 l=0.5
X194 CSoutput.t14 a_n5644_8799.t62 vdd.t114 vdd.t95 sky130_fd_pr__pfet_01v8_lvt ad=1.32 pd=8.33 as=1.32 ps=8.33 w=8 l=0.5
X195 gnd.t239 gnd.t236 gnd.t238 gnd.t237 sky130_fd_pr__nfet_01v8 ad=2.73 pd=14.78 as=0 ps=0 w=7 l=1
X196 vdd.t113 a_n5644_8799.t63 CSoutput.t13 vdd.t104 sky130_fd_pr__pfet_01v8_lvt ad=1.32 pd=8.33 as=1.32 ps=8.33 w=8 l=0.5
X197 vdd.t178 a_n1986_13878.t59 a_n1986_8322.t6 vdd.t177 sky130_fd_pr__pfet_01v8_lvt ad=1.485 pd=9.33 as=3.51 ps=18.78 w=9 l=0.5
X198 plus.t1 gnd.t233 gnd.t235 gnd.t234 sky130_fd_pr__nfet_01v8 ad=0.165 pd=1.33 as=0.165 ps=1.33 w=1 l=0.5
X199 CSoutput.t90 commonsourceibias.t77 gnd.t65 gnd.t64 sky130_fd_pr__nfet_01v8 ad=1.155 pd=7.33 as=1.155 ps=7.33 w=7 l=1
X200 output.t16 outputibias.t11 gnd.t156 gnd.t155 sky130_fd_pr__nfet_01v8 ad=2.34 pd=12.78 as=2.34 ps=12.78 w=6 l=2
X201 gnd.t24 commonsourceibias.t78 CSoutput.t89 gnd.t23 sky130_fd_pr__nfet_01v8 ad=1.155 pd=7.33 as=1.155 ps=7.33 w=7 l=1
X202 gnd.t232 gnd.t230 minus.t0 gnd.t231 sky130_fd_pr__nfet_01v8 ad=0.165 pd=1.33 as=0.165 ps=1.33 w=1 l=0.5
X203 CSoutput.t88 commonsourceibias.t79 gnd.t327 gnd.t6 sky130_fd_pr__nfet_01v8 ad=1.155 pd=7.33 as=1.155 ps=7.33 w=7 l=1
X204 output.t6 CSoutput.t133 vdd.t159 gnd.t182 sky130_fd_pr__nfet_01v8_lvt ad=0.825 pd=5.33 as=0.825 ps=5.33 w=5 l=1
X205 gnd.t167 commonsourceibias.t16 commonsourceibias.t17 gnd.t55 sky130_fd_pr__nfet_01v8 ad=2.73 pd=14.78 as=1.155 ps=7.33 w=7 l=1
X206 gnd.t132 commonsourceibias.t80 CSoutput.t87 gnd.t122 sky130_fd_pr__nfet_01v8 ad=2.73 pd=14.78 as=1.155 ps=7.33 w=7 l=1
X207 a_n1808_13878.t3 a_n1986_13878.t60 vdd.t185 vdd.t184 sky130_fd_pr__pfet_01v8_lvt ad=3.51 pd=18.78 as=1.485 ps=9.33 w=9 l=0.5
X208 gnd.t229 gnd.t226 gnd.t228 gnd.t227 sky130_fd_pr__nfet_01v8 ad=2.73 pd=14.78 as=0 ps=0 w=7 l=1
X209 CSoutput.t86 commonsourceibias.t81 gnd.t41 gnd.t40 sky130_fd_pr__nfet_01v8 ad=1.155 pd=7.33 as=1.155 ps=7.33 w=7 l=1
X210 gnd.t319 commonsourceibias.t82 CSoutput.t85 gnd.t32 sky130_fd_pr__nfet_01v8 ad=1.155 pd=7.33 as=1.155 ps=7.33 w=7 l=1
X211 CSoutput.t84 commonsourceibias.t83 gnd.t321 gnd.t21 sky130_fd_pr__nfet_01v8 ad=1.155 pd=7.33 as=1.155 ps=7.33 w=7 l=1
X212 commonsourceibias.t15 commonsourceibias.t14 gnd.t154 gnd.t86 sky130_fd_pr__nfet_01v8 ad=1.155 pd=7.33 as=1.155 ps=7.33 w=7 l=1
X213 a_n3827_n3924.t28 diffpairibias.t26 gnd.t111 gnd.t110 sky130_fd_pr__nfet_01v8 ad=2.73 pd=14.78 as=2.73 ps=14.78 w=7 l=1
X214 CSoutput.t42 a_n5644_8799.t64 vdd.t112 vdd.t108 sky130_fd_pr__pfet_01v8_lvt ad=1.32 pd=8.33 as=1.32 ps=8.33 w=8 l=0.5
X215 CSoutput.t83 commonsourceibias.t84 gnd.t73 gnd.t72 sky130_fd_pr__nfet_01v8 ad=1.155 pd=7.33 as=1.155 ps=7.33 w=7 l=1
X216 gnd.t31 commonsourceibias.t85 CSoutput.t82 gnd.t30 sky130_fd_pr__nfet_01v8 ad=1.155 pd=7.33 as=1.155 ps=7.33 w=7 l=1
X217 CSoutput.t41 a_n5644_8799.t65 vdd.t111 vdd.t106 sky130_fd_pr__pfet_01v8_lvt ad=1.32 pd=8.33 as=3.12 ps=16.78 w=8 l=0.5
X218 vdd.t32 vdd.t30 vdd.t31 vdd.t19 sky130_fd_pr__pfet_01v8_lvt ad=3.12 pd=16.78 as=0 ps=0 w=8 l=0.5
X219 gnd.t47 commonsourceibias.t86 CSoutput.t81 gnd.t46 sky130_fd_pr__nfet_01v8 ad=1.155 pd=7.33 as=1.155 ps=7.33 w=7 l=1
X220 CSoutput.t80 commonsourceibias.t87 gnd.t90 gnd.t72 sky130_fd_pr__nfet_01v8 ad=1.155 pd=7.33 as=1.155 ps=7.33 w=7 l=1
X221 a_n1986_8322.t17 a_n1986_13878.t61 a_n5644_8799.t6 vdd.t169 sky130_fd_pr__pfet_01v8_lvt ad=1.485 pd=9.33 as=1.485 ps=9.33 w=9 l=0.5
X222 vdd.t152 a_n1986_13878.t62 a_n1986_8322.t5 vdd.t151 sky130_fd_pr__pfet_01v8_lvt ad=1.485 pd=9.33 as=1.485 ps=9.33 w=9 l=0.5
X223 vdd.t110 a_n5644_8799.t66 CSoutput.t40 vdd.t97 sky130_fd_pr__pfet_01v8_lvt ad=1.32 pd=8.33 as=1.32 ps=8.33 w=8 l=0.5
X224 CSoutput.t30 a_n5644_8799.t67 vdd.t109 vdd.t108 sky130_fd_pr__pfet_01v8_lvt ad=1.32 pd=8.33 as=1.32 ps=8.33 w=8 l=0.5
X225 CSoutput.t79 commonsourceibias.t88 gnd.t96 gnd.t70 sky130_fd_pr__nfet_01v8 ad=1.155 pd=7.33 as=1.155 ps=7.33 w=7 l=1
X226 gnd.t56 commonsourceibias.t89 CSoutput.t78 gnd.t55 sky130_fd_pr__nfet_01v8 ad=2.73 pd=14.78 as=1.155 ps=7.33 w=7 l=1
X227 a_n3827_n3924.t46 plus.t16 a_n5644_8799.t29 gnd.t35 sky130_fd_pr__nfet_01v8 ad=1.155 pd=7.33 as=1.155 ps=7.33 w=7 l=0.5
X228 gnd.t225 gnd.t222 gnd.t224 gnd.t223 sky130_fd_pr__nfet_01v8 ad=2.73 pd=14.78 as=0 ps=0 w=7 l=1
X229 a_n3827_n3924.t10 minus.t19 a_n1986_13878.t10 gnd.t43 sky130_fd_pr__nfet_01v8 ad=1.155 pd=7.33 as=1.155 ps=7.33 w=7 l=0.5
X230 a_n5644_8799.t14 plus.t17 a_n3827_n3924.t21 gnd.t28 sky130_fd_pr__nfet_01v8 ad=1.155 pd=7.33 as=1.155 ps=7.33 w=7 l=0.5
X231 diffpairibias.t5 diffpairibias.t4 gnd.t189 gnd.t188 sky130_fd_pr__nfet_01v8 ad=2.73 pd=14.78 as=2.73 ps=14.78 w=7 l=1
X232 CSoutput.t77 commonsourceibias.t90 gnd.t174 gnd.t169 sky130_fd_pr__nfet_01v8 ad=1.155 pd=7.33 as=1.155 ps=7.33 w=7 l=1
X233 gnd.t63 commonsourceibias.t91 CSoutput.t76 gnd.t23 sky130_fd_pr__nfet_01v8 ad=1.155 pd=7.33 as=1.155 ps=7.33 w=7 l=1
X234 vdd.t29 vdd.t26 vdd.t28 vdd.t27 sky130_fd_pr__pfet_01v8_lvt ad=3.51 pd=18.78 as=0 ps=0 w=9 l=0.5
X235 a_n5644_8799.t20 plus.t18 a_n3827_n3924.t37 gnd.t44 sky130_fd_pr__nfet_01v8 ad=1.155 pd=7.33 as=1.155 ps=7.33 w=7 l=0.5
X236 a_n3827_n3924.t2 minus.t20 a_n1986_13878.t2 gnd.t10 sky130_fd_pr__nfet_01v8 ad=1.155 pd=7.33 as=1.155 ps=7.33 w=7 l=0.5
X237 CSoutput.t75 commonsourceibias.t92 gnd.t325 gnd.t40 sky130_fd_pr__nfet_01v8 ad=1.155 pd=7.33 as=1.155 ps=7.33 w=7 l=1
X238 vdd.t25 vdd.t22 vdd.t24 vdd.t23 sky130_fd_pr__pfet_01v8_lvt ad=3.12 pd=16.78 as=0 ps=0 w=8 l=0.5
X239 a_n1808_13878.t10 a_n1986_13878.t27 a_n1986_13878.t28 vdd.t181 sky130_fd_pr__pfet_01v8_lvt ad=1.485 pd=9.33 as=1.485 ps=9.33 w=9 l=0.5
X240 gnd.t323 commonsourceibias.t93 CSoutput.t74 gnd.t46 sky130_fd_pr__nfet_01v8 ad=1.155 pd=7.33 as=1.155 ps=7.33 w=7 l=1
X241 vdd.t156 CSoutput.t134 output.t5 gnd.t140 sky130_fd_pr__nfet_01v8_lvt ad=0.825 pd=5.33 as=0.825 ps=5.33 w=5 l=1
X242 a_n3827_n3924.t27 diffpairibias.t27 gnd.t166 gnd.t165 sky130_fd_pr__nfet_01v8 ad=2.73 pd=14.78 as=2.73 ps=14.78 w=7 l=1
X243 a_n1986_8322.t16 a_n1986_13878.t63 a_n5644_8799.t30 vdd.t4 sky130_fd_pr__pfet_01v8_lvt ad=1.485 pd=9.33 as=1.485 ps=9.33 w=9 l=0.5
X244 gnd.t181 commonsourceibias.t94 CSoutput.t73 gnd.t66 sky130_fd_pr__nfet_01v8 ad=1.155 pd=7.33 as=1.155 ps=7.33 w=7 l=1
X245 CSoutput.t72 commonsourceibias.t95 gnd.t12 gnd.t11 sky130_fd_pr__nfet_01v8 ad=1.155 pd=7.33 as=2.73 ps=14.78 w=7 l=1
X246 gnd.t173 commonsourceibias.t12 commonsourceibias.t13 gnd.t97 sky130_fd_pr__nfet_01v8 ad=1.155 pd=7.33 as=1.155 ps=7.33 w=7 l=1
X247 outputibias.t3 outputibias.t2 gnd.t316 gnd.t315 sky130_fd_pr__nfet_01v8 ad=2.34 pd=12.78 as=2.34 ps=12.78 w=6 l=2
X248 gnd.t75 commonsourceibias.t96 CSoutput.t71 gnd.t15 sky130_fd_pr__nfet_01v8 ad=1.155 pd=7.33 as=1.155 ps=7.33 w=7 l=1