* NGSPICE file created from opamp452.ext - technology: sky130A

.subckt opamp452 gnd CSoutput output vdd plus minus commonsourceibias outputibias
+ diffpairibias
X0 CSoutput.t155 a_n6972_8799.t36 vdd.t231 vdd.t197 sky130_fd_pr__pfet_01v8 ad=1.32 pd=8.33 as=1.32 ps=8.33 w=8 l=0.5
X1 CSoutput.t78 commonsourceibias.t64 gnd.t329 gnd.t260 sky130_fd_pr__nfet_01v8 ad=1.155 pd=7.33 as=1.155 ps=7.33 w=7 l=1
X2 a_n2140_13878.t7 a_n2356_n452.t52 vdd.t233 vdd.t232 sky130_fd_pr__pfet_01v8 ad=1.485 pd=9.33 as=1.485 ps=9.33 w=9 l=0.5
X3 a_n2140_13878.t23 a_n2356_n452.t44 a_n2356_n452.t45 vdd.t24 sky130_fd_pr__pfet_01v8 ad=1.485 pd=9.33 as=1.485 ps=9.33 w=9 l=0.5
X4 CSoutput.t168 a_n2318_8322.t2 sky130_fd_pr__cap_mim_m3_1 l=12 w=12
X5 vdd.t230 a_n6972_8799.t37 CSoutput.t154 vdd.t192 sky130_fd_pr__pfet_01v8 ad=1.32 pd=8.33 as=1.32 ps=8.33 w=8 l=0.5
X6 vdd.t101 vdd.t99 vdd.t100 vdd.t43 sky130_fd_pr__pfet_01v8 ad=3.12 pd=16.78 as=0 ps=0 w=8 l=0.5
X7 gnd.t328 commonsourceibias.t65 CSoutput.t70 gnd.t251 sky130_fd_pr__nfet_01v8 ad=1.155 pd=7.33 as=1.155 ps=7.33 w=7 l=1
X8 a_n6972_8799.t33 plus.t5 a_n2903_n3924.t25 gnd.t163 sky130_fd_pr__nfet_01v8 ad=1.155 pd=7.33 as=1.155 ps=7.33 w=7 l=0.9
X9 CSoutput.t75 commonsourceibias.t66 gnd.t327 gnd.t226 sky130_fd_pr__nfet_01v8 ad=1.155 pd=7.33 as=1.155 ps=7.33 w=7 l=1
X10 CSoutput.t4 commonsourceibias.t67 gnd.t326 gnd.t170 sky130_fd_pr__nfet_01v8 ad=1.155 pd=7.33 as=1.155 ps=7.33 w=7 l=1
X11 a_n2903_n3924.t24 plus.t6 a_n6972_8799.t27 gnd.t353 sky130_fd_pr__nfet_01v8 ad=2.73 pd=14.78 as=1.155 ps=7.33 w=7 l=0.9
X12 CSoutput.t153 a_n6972_8799.t38 vdd.t229 vdd.t142 sky130_fd_pr__pfet_01v8 ad=1.32 pd=8.33 as=1.32 ps=8.33 w=8 l=0.5
X13 a_n2318_8322.t27 a_n2356_n452.t53 a_n6972_8799.t26 vdd.t125 sky130_fd_pr__pfet_01v8 ad=1.485 pd=9.33 as=1.485 ps=9.33 w=9 l=0.5
X14 vdd.t102 CSoutput.t169 output.t15 gnd.t17 sky130_fd_pr__nfet_01v8 ad=0.825 pd=5.33 as=0.825 ps=5.33 w=5 l=1
X15 CSoutput.t152 a_n6972_8799.t39 vdd.t228 vdd.t170 sky130_fd_pr__pfet_01v8 ad=1.32 pd=8.33 as=1.32 ps=8.33 w=8 l=0.5
X16 CSoutput.t76 commonsourceibias.t68 gnd.t325 gnd.t204 sky130_fd_pr__nfet_01v8 ad=1.155 pd=7.33 as=1.155 ps=7.33 w=7 l=1
X17 gnd.t324 commonsourceibias.t69 CSoutput.t63 gnd.t186 sky130_fd_pr__nfet_01v8 ad=1.155 pd=7.33 as=1.155 ps=7.33 w=7 l=1
X18 CSoutput.t38 commonsourceibias.t70 gnd.t320 gnd.t249 sky130_fd_pr__nfet_01v8 ad=1.155 pd=7.33 as=1.155 ps=7.33 w=7 l=1
X19 gnd.t323 commonsourceibias.t71 CSoutput.t25 gnd.t201 sky130_fd_pr__nfet_01v8 ad=2.73 pd=14.78 as=1.155 ps=7.33 w=7 l=1
X20 vdd.t227 a_n6972_8799.t40 CSoutput.t151 vdd.t190 sky130_fd_pr__pfet_01v8 ad=1.32 pd=8.33 as=1.32 ps=8.33 w=8 l=0.5
X21 CSoutput.t10 commonsourceibias.t72 gnd.t322 gnd.t249 sky130_fd_pr__nfet_01v8 ad=1.155 pd=7.33 as=1.155 ps=7.33 w=7 l=1
X22 CSoutput.t161 commonsourceibias.t73 gnd.t321 gnd.t264 sky130_fd_pr__nfet_01v8 ad=1.155 pd=7.33 as=1.155 ps=7.33 w=7 l=1
X23 gnd.t319 commonsourceibias.t74 CSoutput.t39 gnd.t232 sky130_fd_pr__nfet_01v8 ad=2.73 pd=14.78 as=1.155 ps=7.33 w=7 l=1
X24 commonsourceibias.t25 commonsourceibias.t24 gnd.t318 gnd.t204 sky130_fd_pr__nfet_01v8 ad=1.155 pd=7.33 as=1.155 ps=7.33 w=7 l=1
X25 a_n2356_n452.t5 minus.t5 a_n2903_n3924.t27 gnd.t21 sky130_fd_pr__nfet_01v8 ad=1.155 pd=7.33 as=1.155 ps=7.33 w=7 l=0.9
X26 CSoutput.t56 commonsourceibias.t75 gnd.t317 gnd.t170 sky130_fd_pr__nfet_01v8 ad=1.155 pd=7.33 as=1.155 ps=7.33 w=7 l=1
X27 a_n6972_8799.t2 plus.t7 a_n2903_n3924.t23 gnd.t153 sky130_fd_pr__nfet_01v8 ad=1.155 pd=7.33 as=1.155 ps=7.33 w=7 l=0.9
X28 a_n6972_8799.t29 a_n2356_n452.t54 a_n2318_8322.t26 vdd.t128 sky130_fd_pr__pfet_01v8 ad=1.485 pd=9.33 as=3.51 ps=18.78 w=9 l=0.5
X29 a_n2356_n452.t15 minus.t6 a_n2903_n3924.t39 gnd.t340 sky130_fd_pr__nfet_01v8 ad=1.155 pd=7.33 as=1.155 ps=7.33 w=7 l=0.9
X30 vdd.t226 a_n6972_8799.t41 CSoutput.t150 vdd.t204 sky130_fd_pr__pfet_01v8 ad=1.32 pd=8.33 as=1.32 ps=8.33 w=8 l=0.5
X31 CSoutput.t149 a_n6972_8799.t42 vdd.t225 vdd.t172 sky130_fd_pr__pfet_01v8 ad=1.32 pd=8.33 as=1.32 ps=8.33 w=8 l=0.5
X32 CSoutput.t170 a_n2318_8322.t3 sky130_fd_pr__cap_mim_m3_1 l=12 w=12
X33 a_n6972_8799.t30 a_n2356_n452.t55 a_n2318_8322.t25 vdd.t4 sky130_fd_pr__pfet_01v8 ad=1.485 pd=9.33 as=3.51 ps=18.78 w=9 l=0.5
X34 CSoutput.t160 commonsourceibias.t76 gnd.t316 gnd.t260 sky130_fd_pr__nfet_01v8 ad=1.155 pd=7.33 as=1.155 ps=7.33 w=7 l=1
X35 gnd.t315 commonsourceibias.t77 CSoutput.t54 gnd.t241 sky130_fd_pr__nfet_01v8 ad=1.155 pd=7.33 as=1.155 ps=7.33 w=7 l=1
X36 gnd.t149 gnd.t147 gnd.t148 gnd.t68 sky130_fd_pr__nfet_01v8 ad=2.73 pd=14.78 as=0 ps=0 w=7 l=1
X37 CSoutput.t68 commonsourceibias.t78 gnd.t314 gnd.t212 sky130_fd_pr__nfet_01v8 ad=1.155 pd=7.33 as=1.155 ps=7.33 w=7 l=1
X38 CSoutput.t2 commonsourceibias.t79 gnd.t313 gnd.t223 sky130_fd_pr__nfet_01v8 ad=1.155 pd=7.33 as=1.155 ps=7.33 w=7 l=1
X39 gnd.t146 gnd.t144 gnd.t145 gnd.t51 sky130_fd_pr__nfet_01v8 ad=2.73 pd=14.78 as=0 ps=0 w=7 l=1
X40 vdd.t98 vdd.t96 vdd.t97 vdd.t27 sky130_fd_pr__pfet_01v8 ad=3.51 pd=18.78 as=0 ps=0 w=9 l=0.5
X41 CSoutput.t159 commonsourceibias.t80 gnd.t312 gnd.t234 sky130_fd_pr__nfet_01v8 ad=1.155 pd=7.33 as=1.155 ps=7.33 w=7 l=1
X42 CSoutput.t148 a_n6972_8799.t43 vdd.t223 vdd.t197 sky130_fd_pr__pfet_01v8 ad=1.32 pd=8.33 as=1.32 ps=8.33 w=8 l=0.5
X43 a_n2903_n3924.t22 plus.t8 a_n6972_8799.t23 gnd.t24 sky130_fd_pr__nfet_01v8 ad=1.155 pd=7.33 as=1.155 ps=7.33 w=7 l=0.9
X44 a_n2903_n3924.t45 diffpairibias.t16 gnd.t357 gnd.t356 sky130_fd_pr__nfet_01v8 ad=2.73 pd=14.78 as=2.73 ps=14.78 w=7 l=1
X45 CSoutput.t147 a_n6972_8799.t44 vdd.t224 vdd.t164 sky130_fd_pr__pfet_01v8 ad=1.32 pd=8.33 as=3.12 ps=16.78 w=8 l=0.5
X46 a_n2903_n3924.t38 minus.t7 a_n2356_n452.t14 gnd.t162 sky130_fd_pr__nfet_01v8 ad=1.155 pd=7.33 as=1.155 ps=7.33 w=7 l=0.9
X47 gnd.t311 commonsourceibias.t81 CSoutput.t82 gnd.t209 sky130_fd_pr__nfet_01v8 ad=1.155 pd=7.33 as=1.155 ps=7.33 w=7 l=1
X48 vdd.t95 vdd.t93 vdd.t94 vdd.t43 sky130_fd_pr__pfet_01v8 ad=3.12 pd=16.78 as=0 ps=0 w=8 l=0.5
X49 CSoutput.t51 commonsourceibias.t82 gnd.t310 gnd.t192 sky130_fd_pr__nfet_01v8 ad=1.155 pd=7.33 as=2.73 ps=14.78 w=7 l=1
X50 gnd.t309 commonsourceibias.t0 commonsourceibias.t1 gnd.t206 sky130_fd_pr__nfet_01v8 ad=1.155 pd=7.33 as=1.155 ps=7.33 w=7 l=1
X51 CSoutput.t36 commonsourceibias.t83 gnd.t308 gnd.t234 sky130_fd_pr__nfet_01v8 ad=1.155 pd=7.33 as=1.155 ps=7.33 w=7 l=1
X52 output.t19 outputibias.t8 gnd.t343 gnd.t342 sky130_fd_pr__nfet_01v8 ad=2.34 pd=12.78 as=2.34 ps=12.78 w=6 l=2
X53 CSoutput.t146 a_n6972_8799.t45 vdd.t222 vdd.t142 sky130_fd_pr__pfet_01v8 ad=1.32 pd=8.33 as=1.32 ps=8.33 w=8 l=0.5
X54 gnd.t307 commonsourceibias.t84 CSoutput.t164 gnd.t255 sky130_fd_pr__nfet_01v8 ad=1.155 pd=7.33 as=1.155 ps=7.33 w=7 l=1
X55 CSoutput.t28 commonsourceibias.t85 gnd.t306 gnd.t220 sky130_fd_pr__nfet_01v8 ad=1.155 pd=7.33 as=1.155 ps=7.33 w=7 l=1
X56 a_n2140_13878.t22 a_n2356_n452.t22 a_n2356_n452.t23 vdd.t0 sky130_fd_pr__pfet_01v8 ad=1.485 pd=9.33 as=1.485 ps=9.33 w=9 l=0.5
X57 gnd.t305 commonsourceibias.t86 CSoutput.t19 gnd.t255 sky130_fd_pr__nfet_01v8 ad=1.155 pd=7.33 as=1.155 ps=7.33 w=7 l=1
X58 vdd.t103 CSoutput.t171 output.t14 gnd.t16 sky130_fd_pr__nfet_01v8 ad=0.825 pd=5.33 as=0.825 ps=5.33 w=5 l=1
X59 CSoutput.t24 commonsourceibias.t87 gnd.t304 gnd.t188 sky130_fd_pr__nfet_01v8 ad=1.155 pd=7.33 as=1.155 ps=7.33 w=7 l=1
X60 a_n2356_n452.t35 a_n2356_n452.t34 a_n2140_13878.t21 vdd.t21 sky130_fd_pr__pfet_01v8 ad=1.485 pd=9.33 as=1.485 ps=9.33 w=9 l=0.5
X61 gnd.t303 commonsourceibias.t88 CSoutput.t166 gnd.t251 sky130_fd_pr__nfet_01v8 ad=1.155 pd=7.33 as=1.155 ps=7.33 w=7 l=1
X62 CSoutput.t145 a_n6972_8799.t46 vdd.t221 vdd.t170 sky130_fd_pr__pfet_01v8 ad=1.32 pd=8.33 as=1.32 ps=8.33 w=8 l=0.5
X63 gnd.t302 commonsourceibias.t34 commonsourceibias.t35 gnd.t180 sky130_fd_pr__nfet_01v8 ad=1.155 pd=7.33 as=1.155 ps=7.33 w=7 l=1
X64 vdd.t92 vdd.t90 vdd.t91 vdd.t73 sky130_fd_pr__pfet_01v8 ad=3.51 pd=18.78 as=0 ps=0 w=9 l=0.5
X65 CSoutput.t3 commonsourceibias.t89 gnd.t301 gnd.t249 sky130_fd_pr__nfet_01v8 ad=1.155 pd=7.33 as=1.155 ps=7.33 w=7 l=1
X66 gnd.t143 gnd.t140 gnd.t142 gnd.t141 sky130_fd_pr__nfet_01v8 ad=1.95 pd=10.78 as=0 ps=0 w=5 l=1
X67 a_n2903_n3924.t21 plus.t9 a_n6972_8799.t3 gnd.t154 sky130_fd_pr__nfet_01v8 ad=1.155 pd=7.33 as=1.155 ps=7.33 w=7 l=0.9
X68 vdd.t218 a_n6972_8799.t47 CSoutput.t144 vdd.t190 sky130_fd_pr__pfet_01v8 ad=1.32 pd=8.33 as=1.32 ps=8.33 w=8 l=0.5
X69 gnd.t139 gnd.t137 gnd.t138 gnd.t68 sky130_fd_pr__nfet_01v8 ad=2.73 pd=14.78 as=0 ps=0 w=7 l=1
X70 CSoutput.t165 commonsourceibias.t90 gnd.t300 gnd.t220 sky130_fd_pr__nfet_01v8 ad=1.155 pd=7.33 as=1.155 ps=7.33 w=7 l=1
X71 plus.t4 gnd.t134 gnd.t136 gnd.t135 sky130_fd_pr__nfet_01v8 ad=0.165 pd=1.33 as=0.165 ps=1.33 w=1 l=0.5
X72 diffpairibias.t15 diffpairibias.t14 gnd.t363 gnd.t362 sky130_fd_pr__nfet_01v8 ad=2.73 pd=14.78 as=2.73 ps=14.78 w=7 l=1
X73 a_n2903_n3924.t20 plus.t10 a_n6972_8799.t12 gnd.t152 sky130_fd_pr__nfet_01v8 ad=1.155 pd=7.33 as=1.155 ps=7.33 w=7 l=0.9
X74 gnd.t133 gnd.t131 gnd.t132 gnd.t88 sky130_fd_pr__nfet_01v8 ad=2.73 pd=14.78 as=0 ps=0 w=7 l=0.9
X75 CSoutput.t9 commonsourceibias.t91 gnd.t299 gnd.t192 sky130_fd_pr__nfet_01v8 ad=1.155 pd=7.33 as=2.73 ps=14.78 w=7 l=1
X76 CSoutput.t29 commonsourceibias.t92 gnd.t298 gnd.t230 sky130_fd_pr__nfet_01v8 ad=1.155 pd=7.33 as=1.155 ps=7.33 w=7 l=1
X77 gnd.t297 commonsourceibias.t93 CSoutput.t8 gnd.t174 sky130_fd_pr__nfet_01v8 ad=1.155 pd=7.33 as=1.155 ps=7.33 w=7 l=1
X78 gnd.t296 commonsourceibias.t94 CSoutput.t32 gnd.t215 sky130_fd_pr__nfet_01v8 ad=1.155 pd=7.33 as=1.155 ps=7.33 w=7 l=1
X79 a_n6972_8799.t5 a_n2356_n452.t56 a_n2318_8322.t24 vdd.t13 sky130_fd_pr__pfet_01v8 ad=1.485 pd=9.33 as=1.485 ps=9.33 w=9 l=0.5
X80 CSoutput.t143 a_n6972_8799.t48 vdd.t220 vdd.t194 sky130_fd_pr__pfet_01v8 ad=1.32 pd=8.33 as=1.32 ps=8.33 w=8 l=0.5
X81 gnd.t294 commonsourceibias.t95 CSoutput.t55 gnd.t176 sky130_fd_pr__nfet_01v8 ad=1.155 pd=7.33 as=1.155 ps=7.33 w=7 l=1
X82 vdd.t217 a_n6972_8799.t49 CSoutput.t142 vdd.t148 sky130_fd_pr__pfet_01v8 ad=1.32 pd=8.33 as=1.32 ps=8.33 w=8 l=0.5
X83 CSoutput.t7 commonsourceibias.t96 gnd.t295 gnd.t230 sky130_fd_pr__nfet_01v8 ad=1.155 pd=7.33 as=1.155 ps=7.33 w=7 l=1
X84 diffpairibias.t13 diffpairibias.t12 gnd.t165 gnd.t164 sky130_fd_pr__nfet_01v8 ad=2.73 pd=14.78 as=2.73 ps=14.78 w=7 l=1
X85 CSoutput.t141 a_n6972_8799.t50 vdd.t219 vdd.t155 sky130_fd_pr__pfet_01v8 ad=1.32 pd=8.33 as=3.12 ps=16.78 w=8 l=0.5
X86 gnd.t293 commonsourceibias.t36 commonsourceibias.t37 gnd.t218 sky130_fd_pr__nfet_01v8 ad=1.155 pd=7.33 as=1.155 ps=7.33 w=7 l=1
X87 gnd.t292 commonsourceibias.t97 CSoutput.t5 gnd.t232 sky130_fd_pr__nfet_01v8 ad=2.73 pd=14.78 as=1.155 ps=7.33 w=7 l=1
X88 CSoutput.t52 commonsourceibias.t98 gnd.t291 gnd.t188 sky130_fd_pr__nfet_01v8 ad=1.155 pd=7.33 as=1.155 ps=7.33 w=7 l=1
X89 gnd.t290 commonsourceibias.t99 CSoutput.t11 gnd.t218 sky130_fd_pr__nfet_01v8 ad=1.155 pd=7.33 as=1.155 ps=7.33 w=7 l=1
X90 gnd.t105 gnd.t103 gnd.t104 gnd.t43 sky130_fd_pr__nfet_01v8 ad=2.73 pd=14.78 as=0 ps=0 w=7 l=1
X91 CSoutput.t1 commonsourceibias.t100 gnd.t289 gnd.t264 sky130_fd_pr__nfet_01v8 ad=1.155 pd=7.33 as=1.155 ps=7.33 w=7 l=1
X92 CSoutput.t20 commonsourceibias.t101 gnd.t288 gnd.t199 sky130_fd_pr__nfet_01v8 ad=1.155 pd=7.33 as=1.155 ps=7.33 w=7 l=1
X93 vdd.t216 a_n6972_8799.t51 CSoutput.t140 vdd.t140 sky130_fd_pr__pfet_01v8 ad=1.32 pd=8.33 as=1.32 ps=8.33 w=8 l=0.5
X94 CSoutput.t139 a_n6972_8799.t52 vdd.t215 vdd.t206 sky130_fd_pr__pfet_01v8 ad=1.32 pd=8.33 as=1.32 ps=8.33 w=8 l=0.5
X95 gnd.t287 commonsourceibias.t102 CSoutput.t45 gnd.t241 sky130_fd_pr__nfet_01v8 ad=1.155 pd=7.33 as=1.155 ps=7.33 w=7 l=1
X96 CSoutput.t138 a_n6972_8799.t53 vdd.t214 vdd.t164 sky130_fd_pr__pfet_01v8 ad=1.32 pd=8.33 as=3.12 ps=16.78 w=8 l=0.5
X97 CSoutput.t137 a_n6972_8799.t54 vdd.t213 vdd.t206 sky130_fd_pr__pfet_01v8 ad=1.32 pd=8.33 as=1.32 ps=8.33 w=8 l=0.5
X98 CSoutput.t172 a_n2318_8322.t0 sky130_fd_pr__cap_mim_m3_1 l=12 w=12
X99 a_n2903_n3924.t42 minus.t8 a_n2356_n452.t50 gnd.t341 sky130_fd_pr__nfet_01v8 ad=1.155 pd=7.33 as=1.155 ps=7.33 w=7 l=0.9
X100 gnd.t286 commonsourceibias.t18 commonsourceibias.t19 gnd.t196 sky130_fd_pr__nfet_01v8 ad=1.155 pd=7.33 as=1.155 ps=7.33 w=7 l=1
X101 a_n2903_n3924.t19 plus.t11 a_n6972_8799.t0 gnd.t20 sky130_fd_pr__nfet_01v8 ad=2.73 pd=14.78 as=1.155 ps=7.33 w=7 l=0.9
X102 gnd.t130 gnd.t128 gnd.t129 gnd.t47 sky130_fd_pr__nfet_01v8 ad=2.73 pd=14.78 as=0 ps=0 w=7 l=0.9
X103 a_n6972_8799.t35 plus.t12 a_n2903_n3924.t18 gnd.t344 sky130_fd_pr__nfet_01v8 ad=1.155 pd=7.33 as=1.155 ps=7.33 w=7 l=0.9
X104 gnd.t127 gnd.t125 minus.t4 gnd.t126 sky130_fd_pr__nfet_01v8 ad=0.165 pd=1.33 as=0.39 ps=2.78 w=1 l=0.5
X105 output.t13 CSoutput.t173 vdd.t17 gnd.t15 sky130_fd_pr__nfet_01v8 ad=0.825 pd=5.33 as=0.825 ps=5.33 w=5 l=1
X106 gnd.t285 commonsourceibias.t103 CSoutput.t58 gnd.t218 sky130_fd_pr__nfet_01v8 ad=1.155 pd=7.33 as=1.155 ps=7.33 w=7 l=1
X107 a_n2903_n3924.t46 diffpairibias.t17 gnd.t359 gnd.t358 sky130_fd_pr__nfet_01v8 ad=2.73 pd=14.78 as=2.73 ps=14.78 w=7 l=1
X108 gnd.t124 gnd.t122 gnd.t123 gnd.t39 sky130_fd_pr__nfet_01v8 ad=2.73 pd=14.78 as=0 ps=0 w=7 l=1
X109 a_n2356_n452.t17 a_n2356_n452.t16 a_n2140_13878.t20 vdd.t125 sky130_fd_pr__pfet_01v8 ad=1.485 pd=9.33 as=1.485 ps=9.33 w=9 l=0.5
X110 vdd.t212 a_n6972_8799.t55 CSoutput.t136 vdd.t174 sky130_fd_pr__pfet_01v8 ad=1.32 pd=8.33 as=1.32 ps=8.33 w=8 l=0.5
X111 a_n2903_n3924.t17 plus.t13 a_n6972_8799.t7 gnd.t157 sky130_fd_pr__nfet_01v8 ad=1.155 pd=7.33 as=1.155 ps=7.33 w=7 l=0.9
X112 gnd.t278 commonsourceibias.t104 CSoutput.t40 gnd.t209 sky130_fd_pr__nfet_01v8 ad=1.155 pd=7.33 as=1.155 ps=7.33 w=7 l=1
X113 a_n6972_8799.t6 a_n2356_n452.t57 a_n2318_8322.t23 vdd.t14 sky130_fd_pr__pfet_01v8 ad=1.485 pd=9.33 as=1.485 ps=9.33 w=9 l=0.5
X114 vdd.t211 a_n6972_8799.t56 CSoutput.t135 vdd.t204 sky130_fd_pr__pfet_01v8 ad=1.32 pd=8.33 as=1.32 ps=8.33 w=8 l=0.5
X115 a_n2356_n452.t47 a_n2356_n452.t46 a_n2140_13878.t19 vdd.t15 sky130_fd_pr__pfet_01v8 ad=3.51 pd=18.78 as=1.485 ps=9.33 w=9 l=0.5
X116 gnd.t121 gnd.t119 gnd.t120 gnd.t39 sky130_fd_pr__nfet_01v8 ad=2.73 pd=14.78 as=0 ps=0 w=7 l=1
X117 CSoutput.t77 commonsourceibias.t105 gnd.t284 gnd.t223 sky130_fd_pr__nfet_01v8 ad=1.155 pd=7.33 as=1.155 ps=7.33 w=7 l=1
X118 vdd.t210 a_n6972_8799.t57 CSoutput.t134 vdd.t152 sky130_fd_pr__pfet_01v8 ad=1.32 pd=8.33 as=1.32 ps=8.33 w=8 l=0.5
X119 CSoutput.t133 a_n6972_8799.t58 vdd.t209 vdd.t177 sky130_fd_pr__pfet_01v8 ad=1.32 pd=8.33 as=1.32 ps=8.33 w=8 l=0.5
X120 gnd.t283 commonsourceibias.t106 CSoutput.t81 gnd.t182 sky130_fd_pr__nfet_01v8 ad=1.155 pd=7.33 as=1.155 ps=7.33 w=7 l=1
X121 output.t12 CSoutput.t174 vdd.t18 gnd.t14 sky130_fd_pr__nfet_01v8 ad=0.825 pd=5.33 as=0.825 ps=5.33 w=5 l=1
X122 vdd.t89 vdd.t87 vdd.t88 vdd.t77 sky130_fd_pr__pfet_01v8 ad=3.51 pd=18.78 as=0 ps=0 w=9 l=0.5
X123 vdd.t86 vdd.t84 vdd.t85 vdd.t39 sky130_fd_pr__pfet_01v8 ad=3.12 pd=16.78 as=0 ps=0 w=8 l=0.5
X124 gnd.t282 commonsourceibias.t16 commonsourceibias.t17 gnd.t186 sky130_fd_pr__nfet_01v8 ad=1.155 pd=7.33 as=1.155 ps=7.33 w=7 l=1
X125 gnd.t281 commonsourceibias.t107 CSoutput.t74 gnd.t206 sky130_fd_pr__nfet_01v8 ad=1.155 pd=7.33 as=1.155 ps=7.33 w=7 l=1
X126 CSoutput.t132 a_n6972_8799.t59 vdd.t208 vdd.t155 sky130_fd_pr__pfet_01v8 ad=1.32 pd=8.33 as=3.12 ps=16.78 w=8 l=0.5
X127 vdd.t83 vdd.t80 vdd.t82 vdd.t81 sky130_fd_pr__pfet_01v8 ad=3.51 pd=18.78 as=0 ps=0 w=9 l=0.5
X128 output.t16 outputibias.t9 gnd.t151 gnd.t150 sky130_fd_pr__nfet_01v8 ad=2.34 pd=12.78 as=2.34 ps=12.78 w=6 l=2
X129 CSoutput.t175 a_n2318_8322.t2 sky130_fd_pr__cap_mim_m3_1 l=12 w=12
X130 vdd.t122 a_n2356_n452.t58 a_n2318_8322.t11 vdd.t121 sky130_fd_pr__pfet_01v8 ad=1.485 pd=9.33 as=1.485 ps=9.33 w=9 l=0.5
X131 a_n2356_n452.t37 a_n2356_n452.t36 a_n2140_13878.t18 vdd.t5 sky130_fd_pr__pfet_01v8 ad=3.51 pd=18.78 as=1.485 ps=9.33 w=9 l=0.5
X132 a_n2318_8322.t10 a_n2356_n452.t59 vdd.t124 vdd.t123 sky130_fd_pr__pfet_01v8 ad=1.485 pd=9.33 as=1.485 ps=9.33 w=9 l=0.5
X133 gnd.t280 commonsourceibias.t108 CSoutput.t35 gnd.t232 sky130_fd_pr__nfet_01v8 ad=2.73 pd=14.78 as=1.155 ps=7.33 w=7 l=1
X134 a_n2903_n3924.t47 diffpairibias.t18 gnd.t361 gnd.t360 sky130_fd_pr__nfet_01v8 ad=2.73 pd=14.78 as=2.73 ps=14.78 w=7 l=1
X135 output.t11 CSoutput.t176 vdd.t131 gnd.t13 sky130_fd_pr__nfet_01v8 ad=0.825 pd=5.33 as=0.825 ps=5.33 w=5 l=1
X136 CSoutput.t131 a_n6972_8799.t60 vdd.t207 vdd.t206 sky130_fd_pr__pfet_01v8 ad=1.32 pd=8.33 as=1.32 ps=8.33 w=8 l=0.5
X137 vdd.t132 CSoutput.t177 output.t10 gnd.t12 sky130_fd_pr__nfet_01v8 ad=0.825 pd=5.33 as=0.825 ps=5.33 w=5 l=1
X138 gnd.t279 commonsourceibias.t109 CSoutput.t0 gnd.t255 sky130_fd_pr__nfet_01v8 ad=1.155 pd=7.33 as=1.155 ps=7.33 w=7 l=1
X139 gnd.t277 commonsourceibias.t46 commonsourceibias.t47 gnd.t174 sky130_fd_pr__nfet_01v8 ad=1.155 pd=7.33 as=1.155 ps=7.33 w=7 l=1
X140 CSoutput.t31 commonsourceibias.t110 gnd.t276 gnd.t264 sky130_fd_pr__nfet_01v8 ad=1.155 pd=7.33 as=1.155 ps=7.33 w=7 l=1
X141 gnd.t275 commonsourceibias.t111 CSoutput.t64 gnd.t196 sky130_fd_pr__nfet_01v8 ad=1.155 pd=7.33 as=1.155 ps=7.33 w=7 l=1
X142 CSoutput.t83 commonsourceibias.t112 gnd.t268 gnd.t172 sky130_fd_pr__nfet_01v8 ad=1.155 pd=7.33 as=2.73 ps=14.78 w=7 l=1
X143 CSoutput.t80 commonsourceibias.t113 gnd.t274 gnd.t260 sky130_fd_pr__nfet_01v8 ad=1.155 pd=7.33 as=1.155 ps=7.33 w=7 l=1
X144 CSoutput.t178 a_n2318_8322.t1 sky130_fd_pr__cap_mim_m3_1 l=12 w=12
X145 vdd.t10 a_n2356_n452.t60 a_n2140_13878.t6 vdd.t9 sky130_fd_pr__pfet_01v8 ad=1.485 pd=9.33 as=1.485 ps=9.33 w=9 l=0.5
X146 vdd.t79 vdd.t76 vdd.t78 vdd.t77 sky130_fd_pr__pfet_01v8 ad=3.51 pd=18.78 as=0 ps=0 w=9 l=0.5
X147 gnd.t118 gnd.t116 gnd.t117 gnd.t39 sky130_fd_pr__nfet_01v8 ad=2.73 pd=14.78 as=0 ps=0 w=7 l=1
X148 plus.t3 gnd.t113 gnd.t115 gnd.t114 sky130_fd_pr__nfet_01v8 ad=0.165 pd=1.33 as=0.165 ps=1.33 w=1 l=0.5
X149 vdd.t205 a_n6972_8799.t61 CSoutput.t130 vdd.t204 sky130_fd_pr__pfet_01v8 ad=1.32 pd=8.33 as=1.32 ps=8.33 w=8 l=0.5
X150 gnd.t112 gnd.t110 minus.t3 gnd.t111 sky130_fd_pr__nfet_01v8 ad=0.165 pd=1.33 as=0.165 ps=1.33 w=1 l=0.5
X151 a_n6972_8799.t32 plus.t14 a_n2903_n3924.t16 gnd.t350 sky130_fd_pr__nfet_01v8 ad=1.155 pd=7.33 as=2.73 ps=14.78 w=7 l=0.9
X152 a_n2356_n452.t4 minus.t9 a_n2903_n3924.t26 gnd.t29 sky130_fd_pr__nfet_01v8 ad=1.155 pd=7.33 as=2.73 ps=14.78 w=7 l=0.9
X153 vdd.t75 vdd.t72 vdd.t74 vdd.t73 sky130_fd_pr__pfet_01v8 ad=3.51 pd=18.78 as=0 ps=0 w=9 l=0.5
X154 a_n2318_8322.t9 a_n2356_n452.t61 vdd.t12 vdd.t11 sky130_fd_pr__pfet_01v8 ad=3.51 pd=18.78 as=1.485 ps=9.33 w=9 l=0.5
X155 a_n6972_8799.t16 a_n2356_n452.t62 a_n2318_8322.t22 vdd.t108 sky130_fd_pr__pfet_01v8 ad=1.485 pd=9.33 as=1.485 ps=9.33 w=9 l=0.5
X156 a_n6972_8799.t34 plus.t15 a_n2903_n3924.t15 gnd.t23 sky130_fd_pr__nfet_01v8 ad=1.155 pd=7.33 as=1.155 ps=7.33 w=7 l=0.9
X157 diffpairibias.t11 diffpairibias.t10 gnd.t156 gnd.t155 sky130_fd_pr__nfet_01v8 ad=2.73 pd=14.78 as=2.73 ps=14.78 w=7 l=1
X158 a_n2356_n452.t29 a_n2356_n452.t28 a_n2140_13878.t17 vdd.t114 sky130_fd_pr__pfet_01v8 ad=1.485 pd=9.33 as=1.485 ps=9.33 w=9 l=0.5
X159 vdd.t203 a_n6972_8799.t62 CSoutput.t129 vdd.t152 sky130_fd_pr__pfet_01v8 ad=1.32 pd=8.33 as=1.32 ps=8.33 w=8 l=0.5
X160 CSoutput.t57 commonsourceibias.t114 gnd.t273 gnd.t226 sky130_fd_pr__nfet_01v8 ad=1.155 pd=7.33 as=1.155 ps=7.33 w=7 l=1
X161 a_n6972_8799.t17 a_n2356_n452.t63 a_n2318_8322.t21 vdd.t24 sky130_fd_pr__pfet_01v8 ad=1.485 pd=9.33 as=1.485 ps=9.33 w=9 l=0.5
X162 CSoutput.t128 a_n6972_8799.t63 vdd.t202 vdd.t177 sky130_fd_pr__pfet_01v8 ad=1.32 pd=8.33 as=1.32 ps=8.33 w=8 l=0.5
X163 commonsourceibias.t45 commonsourceibias.t44 gnd.t272 gnd.t170 sky130_fd_pr__nfet_01v8 ad=1.155 pd=7.33 as=1.155 ps=7.33 w=7 l=1
X164 output.t9 CSoutput.t179 vdd.t126 gnd.t11 sky130_fd_pr__nfet_01v8 ad=0.825 pd=5.33 as=0.825 ps=5.33 w=5 l=1
X165 gnd.t271 commonsourceibias.t115 CSoutput.t59 gnd.t251 sky130_fd_pr__nfet_01v8 ad=1.155 pd=7.33 as=1.155 ps=7.33 w=7 l=1
X166 a_n2140_13878.t16 a_n2356_n452.t18 a_n2356_n452.t19 vdd.t14 sky130_fd_pr__pfet_01v8 ad=1.485 pd=9.33 as=1.485 ps=9.33 w=9 l=0.5
X167 vdd.t71 vdd.t69 vdd.t70 vdd.t39 sky130_fd_pr__pfet_01v8 ad=3.12 pd=16.78 as=0 ps=0 w=8 l=0.5
X168 gnd.t109 gnd.t106 gnd.t108 gnd.t107 sky130_fd_pr__nfet_01v8 ad=1.95 pd=10.78 as=0 ps=0 w=5 l=1
X169 CSoutput.t60 commonsourceibias.t116 gnd.t270 gnd.t223 sky130_fd_pr__nfet_01v8 ad=1.155 pd=7.33 as=1.155 ps=7.33 w=7 l=1
X170 output.t8 CSoutput.t180 vdd.t127 gnd.t10 sky130_fd_pr__nfet_01v8 ad=0.825 pd=5.33 as=0.825 ps=5.33 w=5 l=1
X171 gnd.t102 gnd.t100 minus.t2 gnd.t101 sky130_fd_pr__nfet_01v8 ad=0.39 pd=2.78 as=0.165 ps=1.33 w=1 l=0.5
X172 CSoutput.t127 a_n6972_8799.t64 vdd.t201 vdd.t194 sky130_fd_pr__pfet_01v8 ad=1.32 pd=8.33 as=1.32 ps=8.33 w=8 l=0.5
X173 CSoutput.t61 commonsourceibias.t117 gnd.t269 gnd.t220 sky130_fd_pr__nfet_01v8 ad=1.155 pd=7.33 as=1.155 ps=7.33 w=7 l=1
X174 gnd.t99 gnd.t97 gnd.t98 gnd.t51 sky130_fd_pr__nfet_01v8 ad=2.73 pd=14.78 as=0 ps=0 w=7 l=1
X175 vdd.t118 a_n2356_n452.t64 a_n2318_8322.t8 vdd.t117 sky130_fd_pr__pfet_01v8 ad=1.485 pd=9.33 as=3.51 ps=18.78 w=9 l=0.5
X176 a_n2140_13878.t15 a_n2356_n452.t24 a_n2356_n452.t25 vdd.t128 sky130_fd_pr__pfet_01v8 ad=1.485 pd=9.33 as=3.51 ps=18.78 w=9 l=0.5
X177 outputibias.t7 outputibias.t6 gnd.t159 gnd.t158 sky130_fd_pr__nfet_01v8 ad=2.34 pd=12.78 as=2.34 ps=12.78 w=6 l=2
X178 vdd.t200 a_n6972_8799.t65 CSoutput.t126 vdd.t192 sky130_fd_pr__pfet_01v8 ad=1.32 pd=8.33 as=1.32 ps=8.33 w=8 l=0.5
X179 a_n2356_n452.t7 minus.t10 a_n2903_n3924.t29 gnd.t163 sky130_fd_pr__nfet_01v8 ad=1.155 pd=7.33 as=1.155 ps=7.33 w=7 l=0.9
X180 a_n2903_n3924.t14 plus.t16 a_n6972_8799.t31 gnd.t22 sky130_fd_pr__nfet_01v8 ad=1.155 pd=7.33 as=1.155 ps=7.33 w=7 l=0.9
X181 gnd.t267 commonsourceibias.t118 CSoutput.t62 gnd.t215 sky130_fd_pr__nfet_01v8 ad=1.155 pd=7.33 as=1.155 ps=7.33 w=7 l=1
X182 gnd.t266 commonsourceibias.t119 CSoutput.t14 gnd.t241 sky130_fd_pr__nfet_01v8 ad=1.155 pd=7.33 as=1.155 ps=7.33 w=7 l=1
X183 a_n2356_n452.t43 a_n2356_n452.t42 a_n2140_13878.t14 vdd.t109 sky130_fd_pr__pfet_01v8 ad=1.485 pd=9.33 as=1.485 ps=9.33 w=9 l=0.5
X184 commonsourceibias.t31 commonsourceibias.t30 gnd.t265 gnd.t264 sky130_fd_pr__nfet_01v8 ad=1.155 pd=7.33 as=1.155 ps=7.33 w=7 l=1
X185 gnd.t263 commonsourceibias.t120 CSoutput.t69 gnd.t201 sky130_fd_pr__nfet_01v8 ad=2.73 pd=14.78 as=1.155 ps=7.33 w=7 l=1
X186 outputibias.t5 outputibias.t4 gnd.t1 gnd.t0 sky130_fd_pr__nfet_01v8 ad=2.34 pd=12.78 as=2.34 ps=12.78 w=6 l=2
X187 CSoutput.t158 commonsourceibias.t121 gnd.t262 gnd.t212 sky130_fd_pr__nfet_01v8 ad=1.155 pd=7.33 as=1.155 ps=7.33 w=7 l=1
X188 a_n2903_n3924.t31 diffpairibias.t19 gnd.t331 gnd.t330 sky130_fd_pr__nfet_01v8 ad=2.73 pd=14.78 as=2.73 ps=14.78 w=7 l=1
X189 gnd.t60 gnd.t57 gnd.t59 gnd.t58 sky130_fd_pr__nfet_01v8 ad=2.73 pd=14.78 as=0 ps=0 w=7 l=1
X190 a_n2903_n3924.t32 diffpairibias.t20 gnd.t333 gnd.t332 sky130_fd_pr__nfet_01v8 ad=2.73 pd=14.78 as=2.73 ps=14.78 w=7 l=1
X191 commonsourceibias.t29 commonsourceibias.t28 gnd.t261 gnd.t260 sky130_fd_pr__nfet_01v8 ad=1.155 pd=7.33 as=1.155 ps=7.33 w=7 l=1
X192 a_n6972_8799.t25 plus.t17 a_n2903_n3924.t13 gnd.t169 sky130_fd_pr__nfet_01v8 ad=1.155 pd=7.33 as=1.155 ps=7.33 w=7 l=0.9
X193 vdd.t199 a_n6972_8799.t66 CSoutput.t125 vdd.t162 sky130_fd_pr__pfet_01v8 ad=3.12 pd=16.78 as=1.32 ps=8.33 w=8 l=0.5
X194 gnd.t96 gnd.t94 gnd.t95 gnd.t68 sky130_fd_pr__nfet_01v8 ad=2.73 pd=14.78 as=0 ps=0 w=7 l=1
X195 gnd.t93 gnd.t91 gnd.t92 gnd.t51 sky130_fd_pr__nfet_01v8 ad=2.73 pd=14.78 as=0 ps=0 w=7 l=1
X196 vdd.t133 CSoutput.t181 output.t7 gnd.t9 sky130_fd_pr__nfet_01v8 ad=0.825 pd=5.33 as=0.825 ps=5.33 w=5 l=1
X197 CSoutput.t157 commonsourceibias.t122 gnd.t259 gnd.t226 sky130_fd_pr__nfet_01v8 ad=1.155 pd=7.33 as=1.155 ps=7.33 w=7 l=1
X198 a_n6972_8799.t18 plus.t18 a_n2903_n3924.t12 gnd.t340 sky130_fd_pr__nfet_01v8 ad=1.155 pd=7.33 as=1.155 ps=7.33 w=7 l=0.9
X199 CSoutput.t156 commonsourceibias.t123 gnd.t257 gnd.t199 sky130_fd_pr__nfet_01v8 ad=1.155 pd=7.33 as=1.155 ps=7.33 w=7 l=1
X200 CSoutput.t124 a_n6972_8799.t67 vdd.t198 vdd.t197 sky130_fd_pr__pfet_01v8 ad=1.32 pd=8.33 as=1.32 ps=8.33 w=8 l=0.5
X201 commonsourceibias.t27 commonsourceibias.t26 gnd.t258 gnd.t234 sky130_fd_pr__nfet_01v8 ad=1.155 pd=7.33 as=1.155 ps=7.33 w=7 l=1
X202 CSoutput.t123 a_n6972_8799.t68 vdd.t196 vdd.t183 sky130_fd_pr__pfet_01v8 ad=1.32 pd=8.33 as=1.32 ps=8.33 w=8 l=0.5
X203 gnd.t256 commonsourceibias.t54 commonsourceibias.t55 gnd.t255 sky130_fd_pr__nfet_01v8 ad=1.155 pd=7.33 as=1.155 ps=7.33 w=7 l=1
X204 vdd.t134 CSoutput.t182 output.t6 gnd.t8 sky130_fd_pr__nfet_01v8 ad=0.825 pd=5.33 as=0.825 ps=5.33 w=5 l=1
X205 diffpairibias.t9 diffpairibias.t8 gnd.t337 gnd.t336 sky130_fd_pr__nfet_01v8 ad=2.73 pd=14.78 as=2.73 ps=14.78 w=7 l=1
X206 a_n2140_13878.t5 a_n2356_n452.t65 vdd.t120 vdd.t119 sky130_fd_pr__pfet_01v8 ad=1.485 pd=9.33 as=1.485 ps=9.33 w=9 l=0.5
X207 a_n2356_n452.t49 minus.t11 a_n2903_n3924.t41 gnd.t166 sky130_fd_pr__nfet_01v8 ad=1.155 pd=7.33 as=1.155 ps=7.33 w=7 l=0.9
X208 vdd.t7 a_n2356_n452.t66 a_n2140_13878.t4 vdd.t6 sky130_fd_pr__pfet_01v8 ad=1.485 pd=9.33 as=1.485 ps=9.33 w=9 l=0.5
X209 CSoutput.t53 commonsourceibias.t124 gnd.t254 gnd.t212 sky130_fd_pr__nfet_01v8 ad=1.155 pd=7.33 as=1.155 ps=7.33 w=7 l=1
X210 CSoutput.t79 commonsourceibias.t125 gnd.t253 gnd.t178 sky130_fd_pr__nfet_01v8 ad=1.155 pd=7.33 as=1.155 ps=7.33 w=7 l=1
X211 CSoutput.t122 a_n6972_8799.t69 vdd.t195 vdd.t194 sky130_fd_pr__pfet_01v8 ad=1.32 pd=8.33 as=1.32 ps=8.33 w=8 l=0.5
X212 gnd.t252 commonsourceibias.t52 commonsourceibias.t53 gnd.t251 sky130_fd_pr__nfet_01v8 ad=1.155 pd=7.33 as=1.155 ps=7.33 w=7 l=1
X213 a_n2903_n3924.t11 plus.t19 a_n6972_8799.t10 gnd.t162 sky130_fd_pr__nfet_01v8 ad=1.155 pd=7.33 as=1.155 ps=7.33 w=7 l=0.9
X214 vdd.t193 a_n6972_8799.t70 CSoutput.t121 vdd.t192 sky130_fd_pr__pfet_01v8 ad=1.32 pd=8.33 as=1.32 ps=8.33 w=8 l=0.5
X215 commonsourceibias.t51 commonsourceibias.t50 gnd.t250 gnd.t249 sky130_fd_pr__nfet_01v8 ad=1.155 pd=7.33 as=1.155 ps=7.33 w=7 l=1
X216 outputibias.t3 outputibias.t2 gnd.t349 gnd.t348 sky130_fd_pr__nfet_01v8 ad=2.34 pd=12.78 as=2.34 ps=12.78 w=6 l=2
X217 a_n2140_13878.t13 a_n2356_n452.t30 a_n2356_n452.t31 vdd.t13 sky130_fd_pr__pfet_01v8 ad=1.485 pd=9.33 as=1.485 ps=9.33 w=9 l=0.5
X218 gnd.t247 commonsourceibias.t126 CSoutput.t34 gnd.t190 sky130_fd_pr__nfet_01v8 ad=1.155 pd=7.33 as=1.155 ps=7.33 w=7 l=1
X219 commonsourceibias.t49 commonsourceibias.t48 gnd.t248 gnd.t192 sky130_fd_pr__nfet_01v8 ad=1.155 pd=7.33 as=2.73 ps=14.78 w=7 l=1
X220 gnd.t246 commonsourceibias.t62 commonsourceibias.t63 gnd.t176 sky130_fd_pr__nfet_01v8 ad=1.155 pd=7.33 as=1.155 ps=7.33 w=7 l=1
X221 a_n2903_n3924.t44 minus.t12 a_n2356_n452.t51 gnd.t347 sky130_fd_pr__nfet_01v8 ad=1.155 pd=7.33 as=1.155 ps=7.33 w=7 l=0.9
X222 a_n2318_8322.t20 a_n2356_n452.t67 a_n6972_8799.t4 vdd.t8 sky130_fd_pr__pfet_01v8 ad=1.485 pd=9.33 as=1.485 ps=9.33 w=9 l=0.5
X223 CSoutput.t13 commonsourceibias.t127 gnd.t245 gnd.t188 sky130_fd_pr__nfet_01v8 ad=1.155 pd=7.33 as=1.155 ps=7.33 w=7 l=1
X224 CSoutput.t120 a_n6972_8799.t71 vdd.t139 vdd.t138 sky130_fd_pr__pfet_01v8 ad=1.32 pd=8.33 as=1.32 ps=8.33 w=8 l=0.5
X225 diffpairibias.t7 diffpairibias.t6 gnd.t28 gnd.t27 sky130_fd_pr__nfet_01v8 ad=2.73 pd=14.78 as=2.73 ps=14.78 w=7 l=1
X226 vdd.t191 a_n6972_8799.t72 CSoutput.t119 vdd.t190 sky130_fd_pr__pfet_01v8 ad=1.32 pd=8.33 as=1.32 ps=8.33 w=8 l=0.5
X227 commonsourceibias.t61 commonsourceibias.t60 gnd.t244 gnd.t230 sky130_fd_pr__nfet_01v8 ad=1.155 pd=7.33 as=1.155 ps=7.33 w=7 l=1
X228 vdd.t105 a_n2356_n452.t68 a_n2318_8322.t7 vdd.t104 sky130_fd_pr__pfet_01v8 ad=1.485 pd=9.33 as=3.51 ps=18.78 w=9 l=0.5
X229 vdd.t189 a_n6972_8799.t73 CSoutput.t118 vdd.t162 sky130_fd_pr__pfet_01v8 ad=3.12 pd=16.78 as=1.32 ps=8.33 w=8 l=0.5
X230 a_n2903_n3924.t28 minus.t13 a_n2356_n452.t6 gnd.t152 sky130_fd_pr__nfet_01v8 ad=1.155 pd=7.33 as=1.155 ps=7.33 w=7 l=0.9
X231 gnd.t90 gnd.t87 gnd.t89 gnd.t88 sky130_fd_pr__nfet_01v8 ad=2.73 pd=14.78 as=0 ps=0 w=7 l=0.9
X232 gnd.t243 commonsourceibias.t128 CSoutput.t66 gnd.t190 sky130_fd_pr__nfet_01v8 ad=1.155 pd=7.33 as=1.155 ps=7.33 w=7 l=1
X233 gnd.t86 gnd.t84 plus.t2 gnd.t85 sky130_fd_pr__nfet_01v8 ad=0.165 pd=1.33 as=0.165 ps=1.33 w=1 l=0.5
X234 a_n2903_n3924.t40 minus.t14 a_n2356_n452.t48 gnd.t353 sky130_fd_pr__nfet_01v8 ad=2.73 pd=14.78 as=1.155 ps=7.33 w=7 l=0.9
X235 minus.t1 gnd.t81 gnd.t83 gnd.t82 sky130_fd_pr__nfet_01v8 ad=0.165 pd=1.33 as=0.165 ps=1.33 w=1 l=0.5
X236 gnd.t242 commonsourceibias.t58 commonsourceibias.t59 gnd.t241 sky130_fd_pr__nfet_01v8 ad=1.155 pd=7.33 as=1.155 ps=7.33 w=7 l=1
X237 CSoutput.t44 commonsourceibias.t129 gnd.t240 gnd.t172 sky130_fd_pr__nfet_01v8 ad=1.155 pd=7.33 as=2.73 ps=14.78 w=7 l=1
X238 a_n2140_13878.t3 a_n2356_n452.t69 vdd.t107 vdd.t106 sky130_fd_pr__pfet_01v8 ad=3.51 pd=18.78 as=1.485 ps=9.33 w=9 l=0.5
X239 output.t5 CSoutput.t183 vdd.t135 gnd.t7 sky130_fd_pr__nfet_01v8 ad=0.825 pd=5.33 as=0.825 ps=5.33 w=5 l=1
X240 vdd.t188 a_n6972_8799.t74 CSoutput.t117 vdd.t174 sky130_fd_pr__pfet_01v8 ad=1.32 pd=8.33 as=1.32 ps=8.33 w=8 l=0.5
X241 CSoutput.t116 a_n6972_8799.t75 vdd.t187 vdd.t183 sky130_fd_pr__pfet_01v8 ad=1.32 pd=8.33 as=1.32 ps=8.33 w=8 l=0.5
X242 CSoutput.t115 a_n6972_8799.t76 vdd.t181 vdd.t172 sky130_fd_pr__pfet_01v8 ad=1.32 pd=8.33 as=1.32 ps=8.33 w=8 l=0.5
X243 gnd.t239 commonsourceibias.t130 CSoutput.t50 gnd.t174 sky130_fd_pr__nfet_01v8 ad=1.155 pd=7.33 as=1.155 ps=7.33 w=7 l=1
X244 gnd.t80 gnd.t77 gnd.t79 gnd.t78 sky130_fd_pr__nfet_01v8 ad=2.73 pd=14.78 as=0 ps=0 w=7 l=1
X245 a_n2903_n3924.t43 diffpairibias.t21 gnd.t355 gnd.t354 sky130_fd_pr__nfet_01v8 ad=2.73 pd=14.78 as=2.73 ps=14.78 w=7 l=1
X246 vdd.t116 a_n2356_n452.t70 a_n2318_8322.t6 vdd.t115 sky130_fd_pr__pfet_01v8 ad=1.485 pd=9.33 as=1.485 ps=9.33 w=9 l=0.5
X247 a_n2318_8322.t19 a_n2356_n452.t71 a_n6972_8799.t24 vdd.t114 sky130_fd_pr__pfet_01v8 ad=1.485 pd=9.33 as=1.485 ps=9.33 w=9 l=0.5
X248 CSoutput.t114 a_n6972_8799.t77 vdd.t184 vdd.t183 sky130_fd_pr__pfet_01v8 ad=1.32 pd=8.33 as=1.32 ps=8.33 w=8 l=0.5