* NGSPICE file created from opamp147.ext - technology: sky130A

.subckt opamp147 gnd CSoutput output vdd plus minus commonsourceibias outputibias
+ diffpairibias
X0 gnd.t351 commonsourceibias.t36 commonsourceibias.t37 gnd.t273 sky130_fd_pr__nfet_01v8 ad=1.155 pd=7.33 as=1.155 ps=7.33 w=7 l=1
X1 a_n2804_13878.t28 a_n2982_13878.t56 a_n2982_13878.t57 vdd.t242 sky130_fd_pr__pfet_01v8 ad=1.485 pd=9.33 as=1.485 ps=9.33 w=9 l=0.5
X2 a_n2804_13878.t4 a_n2982_13878.t68 vdd.t255 vdd.t254 sky130_fd_pr__pfet_01v8 ad=1.485 pd=9.33 as=1.485 ps=9.33 w=9 l=0.5
X3 CSoutput.t175 commonsourceibias.t64 gnd.t350 gnd.t244 sky130_fd_pr__nfet_01v8 ad=1.155 pd=7.33 as=2.73 ps=14.78 w=7 l=1
X4 vdd.t186 a_n9628_8799.t44 CSoutput.t68 vdd.t150 sky130_fd_pr__pfet_01v8 ad=1.32 pd=8.33 as=1.32 ps=8.33 w=8 l=0.5
X5 commonsourceibias.t35 commonsourceibias.t34 gnd.t349 gnd.t216 sky130_fd_pr__nfet_01v8 ad=1.155 pd=7.33 as=1.155 ps=7.33 w=7 l=1
X6 gnd.t348 commonsourceibias.t65 CSoutput.t174 gnd.t205 sky130_fd_pr__nfet_01v8 ad=1.155 pd=7.33 as=1.155 ps=7.33 w=7 l=1
X7 a_n9628_8799.t3 plus.t5 a_n3827_n3924.t41 gnd.t12 sky130_fd_pr__nfet_01v8 ad=1.155 pd=7.33 as=1.155 ps=7.33 w=7 l=0.9
X8 CSoutput.t69 a_n9628_8799.t45 vdd.t187 vdd.t0 sky130_fd_pr__pfet_01v8 ad=1.32 pd=8.33 as=1.32 ps=8.33 w=8 l=0.5
X9 gnd.t347 commonsourceibias.t32 commonsourceibias.t33 gnd.t211 sky130_fd_pr__nfet_01v8 ad=1.155 pd=7.33 as=1.155 ps=7.33 w=7 l=1
X10 a_n3827_n3924.t6 diffpairibias.t20 gnd.t11 gnd.t10 sky130_fd_pr__nfet_01v8 ad=2.73 pd=14.78 as=2.73 ps=14.78 w=7 l=1
X11 a_n3827_n3924.t40 plus.t6 a_n9628_8799.t10 gnd.t42 sky130_fd_pr__nfet_01v8 ad=2.73 pd=14.78 as=1.155 ps=7.33 w=7 l=0.9
X12 vdd.t108 a_n9628_8799.t46 CSoutput.t16 vdd.t107 sky130_fd_pr__pfet_01v8 ad=1.32 pd=8.33 as=1.32 ps=8.33 w=8 l=0.5
X13 gnd.t346 commonsourceibias.t30 commonsourceibias.t31 gnd.t192 sky130_fd_pr__nfet_01v8 ad=1.155 pd=7.33 as=1.155 ps=7.33 w=7 l=1
X14 a_n2982_8322.t37 a_n2982_13878.t69 a_n9628_8799.t19 vdd.t252 sky130_fd_pr__pfet_01v8 ad=1.485 pd=9.33 as=1.485 ps=9.33 w=9 l=0.5
X15 CSoutput.t17 a_n9628_8799.t47 vdd.t109 vdd.t100 sky130_fd_pr__pfet_01v8 ad=1.32 pd=8.33 as=1.32 ps=8.33 w=8 l=0.5
X16 commonsourceibias.t51 commonsourceibias.t50 gnd.t345 gnd.t231 sky130_fd_pr__nfet_01v8 ad=1.155 pd=7.33 as=1.155 ps=7.33 w=7 l=1
X17 vdd.t172 a_n9628_8799.t48 CSoutput.t54 vdd.t171 sky130_fd_pr__pfet_01v8 ad=1.32 pd=8.33 as=1.32 ps=8.33 w=8 l=0.5
X18 gnd.t344 commonsourceibias.t66 CSoutput.t173 gnd.t267 sky130_fd_pr__nfet_01v8 ad=1.155 pd=7.33 as=1.155 ps=7.33 w=7 l=1
X19 CSoutput.t55 a_n9628_8799.t49 vdd.t173 vdd.t127 sky130_fd_pr__pfet_01v8 ad=1.32 pd=8.33 as=1.32 ps=8.33 w=8 l=0.5
X20 vdd.t198 a_n9628_8799.t50 CSoutput.t78 vdd.t171 sky130_fd_pr__pfet_01v8 ad=1.32 pd=8.33 as=1.32 ps=8.33 w=8 l=0.5
X21 vdd.t199 a_n9628_8799.t51 CSoutput.t79 vdd.t135 sky130_fd_pr__pfet_01v8 ad=3.12 pd=16.78 as=1.32 ps=8.33 w=8 l=0.5
X22 gnd.t187 gnd.t185 gnd.t186 gnd.t105 sky130_fd_pr__nfet_01v8 ad=2.73 pd=14.78 as=0 ps=0 w=7 l=1
X23 CSoutput.t198 a_n9628_8799.t52 vdd.t290 vdd.t16 sky130_fd_pr__pfet_01v8 ad=1.32 pd=8.33 as=1.32 ps=8.33 w=8 l=0.5
X24 a_n2982_13878.t6 minus.t5 a_n3827_n3924.t10 gnd.t27 sky130_fd_pr__nfet_01v8 ad=1.155 pd=7.33 as=1.155 ps=7.33 w=7 l=0.9
X25 gnd.t184 gnd.t181 gnd.t183 gnd.t182 sky130_fd_pr__nfet_01v8 ad=2.34 pd=12.78 as=0 ps=0 w=6 l=2
X26 a_n9628_8799.t6 plus.t7 a_n3827_n3924.t39 gnd.t35 sky130_fd_pr__nfet_01v8 ad=1.155 pd=7.33 as=1.155 ps=7.33 w=7 l=0.9
X27 a_n9628_8799.t25 a_n2982_13878.t70 a_n2982_8322.t36 vdd.t238 sky130_fd_pr__pfet_01v8 ad=1.485 pd=9.33 as=1.485 ps=9.33 w=9 l=0.5
X28 a_n2982_13878.t11 minus.t6 a_n3827_n3924.t16 gnd.t0 sky130_fd_pr__nfet_01v8 ad=1.155 pd=7.33 as=1.155 ps=7.33 w=7 l=0.9
X29 vdd.t291 a_n9628_8799.t53 CSoutput.t199 vdd.t120 sky130_fd_pr__pfet_01v8 ad=1.32 pd=8.33 as=1.32 ps=8.33 w=8 l=0.5
X30 vdd.t304 a_n9628_8799.t54 CSoutput.t212 vdd.t155 sky130_fd_pr__pfet_01v8 ad=1.32 pd=8.33 as=1.32 ps=8.33 w=8 l=0.5
X31 commonsourceibias.t49 commonsourceibias.t48 gnd.t343 gnd.t271 sky130_fd_pr__nfet_01v8 ad=1.155 pd=7.33 as=1.155 ps=7.33 w=7 l=1
X32 CSoutput.t213 a_n9628_8799.t55 vdd.t305 vdd.t146 sky130_fd_pr__pfet_01v8 ad=1.32 pd=8.33 as=1.32 ps=8.33 w=8 l=0.5
X33 a_n9628_8799.t21 a_n2982_13878.t71 a_n2982_8322.t35 vdd.t201 sky130_fd_pr__pfet_01v8 ad=1.485 pd=9.33 as=3.51 ps=18.78 w=9 l=0.5
X34 gnd.t342 commonsourceibias.t67 CSoutput.t172 gnd.t207 sky130_fd_pr__nfet_01v8 ad=1.155 pd=7.33 as=1.155 ps=7.33 w=7 l=1
X35 CSoutput.t171 commonsourceibias.t68 gnd.t341 gnd.t222 sky130_fd_pr__nfet_01v8 ad=1.155 pd=7.33 as=1.155 ps=7.33 w=7 l=1
X36 gnd.t340 commonsourceibias.t46 commonsourceibias.t47 gnd.t267 sky130_fd_pr__nfet_01v8 ad=1.155 pd=7.33 as=1.155 ps=7.33 w=7 l=1
X37 CSoutput.t216 a_n2982_8322.t5 sky130_fd_pr__cap_mim_m3_1 l=12 w=12
X38 CSoutput.t170 commonsourceibias.t69 gnd.t339 gnd.t276 sky130_fd_pr__nfet_01v8 ad=1.155 pd=7.33 as=1.155 ps=7.33 w=7 l=1
X39 a_n3827_n3924.t38 plus.t8 a_n9628_8799.t8 gnd.t40 sky130_fd_pr__nfet_01v8 ad=1.155 pd=7.33 as=1.155 ps=7.33 w=7 l=0.9
X40 CSoutput.t48 a_n9628_8799.t56 vdd.t162 vdd.t129 sky130_fd_pr__pfet_01v8 ad=1.32 pd=8.33 as=1.32 ps=8.33 w=8 l=0.5
X41 a_n3827_n3924.t3 diffpairibias.t21 gnd.t6 gnd.t5 sky130_fd_pr__nfet_01v8 ad=2.73 pd=14.78 as=2.73 ps=14.78 w=7 l=1
X42 commonsourceibias.t45 commonsourceibias.t44 gnd.t338 gnd.t199 sky130_fd_pr__nfet_01v8 ad=1.155 pd=7.33 as=1.155 ps=7.33 w=7 l=1
X43 a_n3827_n3924.t1 minus.t7 a_n2982_13878.t0 gnd.t3 sky130_fd_pr__nfet_01v8 ad=1.155 pd=7.33 as=1.155 ps=7.33 w=7 l=0.9
X44 CSoutput.t49 a_n9628_8799.t57 vdd.t164 vdd.t163 sky130_fd_pr__pfet_01v8 ad=1.32 pd=8.33 as=1.32 ps=8.33 w=8 l=0.5
X45 vdd.t119 a_n9628_8799.t58 CSoutput.t20 vdd.t118 sky130_fd_pr__pfet_01v8 ad=1.32 pd=8.33 as=1.32 ps=8.33 w=8 l=0.5
X46 vdd.t121 a_n9628_8799.t59 CSoutput.t21 vdd.t120 sky130_fd_pr__pfet_01v8 ad=1.32 pd=8.33 as=1.32 ps=8.33 w=8 l=0.5
X47 CSoutput.t169 commonsourceibias.t70 gnd.t337 gnd.t276 sky130_fd_pr__nfet_01v8 ad=1.155 pd=7.33 as=1.155 ps=7.33 w=7 l=1
X48 vdd.t95 vdd.t93 vdd.t94 vdd.t84 sky130_fd_pr__pfet_01v8 ad=3.12 pd=16.78 as=0 ps=0 w=8 l=0.5
X49 gnd.t336 commonsourceibias.t42 commonsourceibias.t43 gnd.t260 sky130_fd_pr__nfet_01v8 ad=1.155 pd=7.33 as=1.155 ps=7.33 w=7 l=1
X50 CSoutput.t168 commonsourceibias.t71 gnd.t335 gnd.t209 sky130_fd_pr__nfet_01v8 ad=1.155 pd=7.33 as=2.73 ps=14.78 w=7 l=1
X51 vdd.t126 a_n9628_8799.t60 CSoutput.t24 vdd.t107 sky130_fd_pr__pfet_01v8 ad=1.32 pd=8.33 as=1.32 ps=8.33 w=8 l=0.5
X52 a_n2804_13878.t27 a_n2982_13878.t12 a_n2982_13878.t13 vdd.t209 sky130_fd_pr__pfet_01v8 ad=1.485 pd=9.33 as=1.485 ps=9.33 w=9 l=0.5
X53 a_n2982_13878.t41 a_n2982_13878.t40 a_n2804_13878.t26 vdd.t222 sky130_fd_pr__pfet_01v8 ad=1.485 pd=9.33 as=1.485 ps=9.33 w=9 l=0.5
X54 output.t3 outputibias.t8 gnd.t44 gnd.t43 sky130_fd_pr__nfet_01v8 ad=2.34 pd=12.78 as=2.34 ps=12.78 w=6 l=2
X55 vdd.t92 vdd.t90 vdd.t91 vdd.t84 sky130_fd_pr__pfet_01v8 ad=3.12 pd=16.78 as=0 ps=0 w=8 l=0.5
X56 CSoutput.t217 a_n2982_8322.t4 sky130_fd_pr__cap_mim_m3_1 l=12 w=12
X57 CSoutput.t25 a_n9628_8799.t61 vdd.t128 vdd.t127 sky130_fd_pr__pfet_01v8 ad=1.32 pd=8.33 as=1.32 ps=8.33 w=8 l=0.5
X58 vdd.t89 vdd.t87 vdd.t88 vdd.t66 sky130_fd_pr__pfet_01v8 ad=3.51 pd=18.78 as=0 ps=0 w=9 l=0.5
X59 a_n3827_n3924.t37 plus.t9 a_n9628_8799.t1 gnd.t8 sky130_fd_pr__nfet_01v8 ad=1.155 pd=7.33 as=1.155 ps=7.33 w=7 l=0.9
X60 vdd.t288 a_n9628_8799.t62 CSoutput.t196 vdd.t135 sky130_fd_pr__pfet_01v8 ad=3.12 pd=16.78 as=1.32 ps=8.33 w=8 l=0.5
X61 vdd.t289 a_n9628_8799.t63 CSoutput.t197 vdd.t171 sky130_fd_pr__pfet_01v8 ad=1.32 pd=8.33 as=1.32 ps=8.33 w=8 l=0.5
X62 vdd.t267 CSoutput.t218 output.t19 gnd.t365 sky130_fd_pr__nfet_01v8 ad=0.825 pd=5.33 as=0.825 ps=5.33 w=5 l=1
X63 plus.t4 gnd.t178 gnd.t180 gnd.t179 sky130_fd_pr__nfet_01v8 ad=0.165 pd=1.33 as=0.165 ps=1.33 w=1 l=0.5
X64 diffpairibias.t19 diffpairibias.t18 gnd.t353 gnd.t352 sky130_fd_pr__nfet_01v8 ad=2.73 pd=14.78 as=2.73 ps=14.78 w=7 l=1
X65 CSoutput.t167 commonsourceibias.t72 gnd.t325 gnd.t242 sky130_fd_pr__nfet_01v8 ad=1.155 pd=7.33 as=1.155 ps=7.33 w=7 l=1
X66 a_n3827_n3924.t36 plus.t10 a_n9628_8799.t40 gnd.t24 sky130_fd_pr__nfet_01v8 ad=1.155 pd=7.33 as=1.155 ps=7.33 w=7 l=0.9
X67 gnd.t177 gnd.t175 gnd.t176 gnd.t119 sky130_fd_pr__nfet_01v8 ad=2.73 pd=14.78 as=0 ps=0 w=7 l=0.9
X68 CSoutput.t8 a_n9628_8799.t64 vdd.t17 vdd.t16 sky130_fd_pr__pfet_01v8 ad=1.32 pd=8.33 as=1.32 ps=8.33 w=8 l=0.5
X69 a_n2982_13878.t17 a_n2982_13878.t16 a_n2804_13878.t25 vdd.t237 sky130_fd_pr__pfet_01v8 ad=1.485 pd=9.33 as=1.485 ps=9.33 w=9 l=0.5
X70 CSoutput.t9 a_n9628_8799.t65 vdd.t19 vdd.t18 sky130_fd_pr__pfet_01v8 ad=1.32 pd=8.33 as=1.32 ps=8.33 w=8 l=0.5
X71 a_n9628_8799.t29 a_n2982_13878.t72 a_n2982_8322.t34 vdd.t232 sky130_fd_pr__pfet_01v8 ad=1.485 pd=9.33 as=1.485 ps=9.33 w=9 l=0.5
X72 CSoutput.t166 commonsourceibias.t73 gnd.t334 gnd.t285 sky130_fd_pr__nfet_01v8 ad=1.155 pd=7.33 as=1.155 ps=7.33 w=7 l=1
X73 CSoutput.t165 commonsourceibias.t74 gnd.t333 gnd.t257 sky130_fd_pr__nfet_01v8 ad=1.155 pd=7.33 as=1.155 ps=7.33 w=7 l=1
X74 vdd.t159 a_n9628_8799.t66 CSoutput.t46 vdd.t105 sky130_fd_pr__pfet_01v8 ad=1.32 pd=8.33 as=1.32 ps=8.33 w=8 l=0.5
X75 CSoutput.t47 a_n9628_8799.t67 vdd.t161 vdd.t160 sky130_fd_pr__pfet_01v8 ad=1.32 pd=8.33 as=1.32 ps=8.33 w=8 l=0.5
X76 commonsourceibias.t41 commonsourceibias.t40 gnd.t332 gnd.t244 sky130_fd_pr__nfet_01v8 ad=1.155 pd=7.33 as=2.73 ps=14.78 w=7 l=1
X77 a_n2982_13878.t27 a_n2982_13878.t26 a_n2804_13878.t24 vdd.t253 sky130_fd_pr__pfet_01v8 ad=1.485 pd=9.33 as=1.485 ps=9.33 w=9 l=0.5
X78 gnd.t174 gnd.t172 gnd.t173 gnd.t69 sky130_fd_pr__nfet_01v8 ad=2.73 pd=14.78 as=0 ps=0 w=7 l=1
X79 vdd.t190 a_n9628_8799.t68 CSoutput.t72 vdd.t96 sky130_fd_pr__pfet_01v8 ad=1.32 pd=8.33 as=1.32 ps=8.33 w=8 l=0.5
X80 vdd.t191 a_n9628_8799.t69 CSoutput.t73 vdd.t155 sky130_fd_pr__pfet_01v8 ad=1.32 pd=8.33 as=1.32 ps=8.33 w=8 l=0.5
X81 a_n9628_8799.t26 a_n2982_13878.t73 a_n2982_8322.t33 vdd.t230 sky130_fd_pr__pfet_01v8 ad=1.485 pd=9.33 as=1.485 ps=9.33 w=9 l=0.5
X82 CSoutput.t66 a_n9628_8799.t70 vdd.t184 vdd.t146 sky130_fd_pr__pfet_01v8 ad=1.32 pd=8.33 as=1.32 ps=8.33 w=8 l=0.5
X83 diffpairibias.t17 diffpairibias.t16 gnd.t46 gnd.t45 sky130_fd_pr__nfet_01v8 ad=2.73 pd=14.78 as=2.73 ps=14.78 w=7 l=1
X84 CSoutput.t67 a_n9628_8799.t71 vdd.t185 vdd.t122 sky130_fd_pr__pfet_01v8 ad=1.32 pd=8.33 as=1.32 ps=8.33 w=8 l=0.5
X85 gnd.t171 gnd.t169 gnd.t170 gnd.t69 sky130_fd_pr__nfet_01v8 ad=2.73 pd=14.78 as=0 ps=0 w=7 l=1
X86 a_n9628_8799.t31 a_n2982_13878.t74 a_n2982_8322.t32 vdd.t245 sky130_fd_pr__pfet_01v8 ad=1.485 pd=9.33 as=1.485 ps=9.33 w=9 l=0.5
X87 a_n2982_8322.t31 a_n2982_13878.t75 a_n9628_8799.t33 vdd.t253 sky130_fd_pr__pfet_01v8 ad=1.485 pd=9.33 as=1.485 ps=9.33 w=9 l=0.5
X88 CSoutput.t164 commonsourceibias.t75 gnd.t331 gnd.t257 sky130_fd_pr__nfet_01v8 ad=1.155 pd=7.33 as=1.155 ps=7.33 w=7 l=1
X89 CSoutput.t194 a_n9628_8799.t72 vdd.t286 vdd.t195 sky130_fd_pr__pfet_01v8 ad=1.32 pd=8.33 as=1.32 ps=8.33 w=8 l=0.5
X90 a_n3827_n3924.t14 minus.t8 a_n2982_13878.t9 gnd.t36 sky130_fd_pr__nfet_01v8 ad=1.155 pd=7.33 as=1.155 ps=7.33 w=7 l=0.9
X91 a_n3827_n3924.t35 plus.t11 a_n9628_8799.t12 gnd.t37 sky130_fd_pr__nfet_01v8 ad=2.73 pd=14.78 as=1.155 ps=7.33 w=7 l=0.9
X92 gnd.t330 commonsourceibias.t76 CSoutput.t163 gnd.t238 sky130_fd_pr__nfet_01v8 ad=1.155 pd=7.33 as=1.155 ps=7.33 w=7 l=1
X93 gnd.t168 gnd.t165 gnd.t167 gnd.t166 sky130_fd_pr__nfet_01v8 ad=2.34 pd=12.78 as=0 ps=0 w=6 l=2
X94 CSoutput.t162 commonsourceibias.t77 gnd.t329 gnd.t197 sky130_fd_pr__nfet_01v8 ad=1.155 pd=7.33 as=1.155 ps=7.33 w=7 l=1
X95 gnd.t164 gnd.t162 gnd.t163 gnd.t81 sky130_fd_pr__nfet_01v8 ad=2.73 pd=14.78 as=0 ps=0 w=7 l=0.9
X96 a_n9628_8799.t2 plus.t12 a_n3827_n3924.t34 gnd.t9 sky130_fd_pr__nfet_01v8 ad=1.155 pd=7.33 as=1.155 ps=7.33 w=7 l=0.9
X97 gnd.t328 commonsourceibias.t78 CSoutput.t161 gnd.t218 sky130_fd_pr__nfet_01v8 ad=2.73 pd=14.78 as=1.155 ps=7.33 w=7 l=1
X98 gnd.t161 gnd.t159 minus.t4 gnd.t160 sky130_fd_pr__nfet_01v8 ad=0.165 pd=1.33 as=0.39 ps=2.78 w=1 l=0.5
X99 vdd.t86 vdd.t83 vdd.t85 vdd.t84 sky130_fd_pr__pfet_01v8 ad=3.12 pd=16.78 as=0 ps=0 w=8 l=0.5
X100 gnd.t158 gnd.t156 gnd.t157 gnd.t105 sky130_fd_pr__nfet_01v8 ad=2.73 pd=14.78 as=0 ps=0 w=7 l=1
X101 a_n3827_n3924.t19 diffpairibias.t22 gnd.t65 gnd.t64 sky130_fd_pr__nfet_01v8 ad=2.73 pd=14.78 as=2.73 ps=14.78 w=7 l=1
X102 CSoutput.t195 a_n9628_8799.t73 vdd.t287 vdd.t16 sky130_fd_pr__pfet_01v8 ad=1.32 pd=8.33 as=1.32 ps=8.33 w=8 l=0.5
X103 vdd.t302 a_n9628_8799.t74 CSoutput.t210 vdd.t137 sky130_fd_pr__pfet_01v8 ad=1.32 pd=8.33 as=1.32 ps=8.33 w=8 l=0.5
X104 vdd.t303 a_n9628_8799.t75 CSoutput.t211 vdd.t12 sky130_fd_pr__pfet_01v8 ad=1.32 pd=8.33 as=1.32 ps=8.33 w=8 l=0.5
X105 CSoutput.t160 commonsourceibias.t79 gnd.t327 gnd.t203 sky130_fd_pr__nfet_01v8 ad=1.155 pd=7.33 as=1.155 ps=7.33 w=7 l=1
X106 a_n2982_13878.t33 a_n2982_13878.t32 a_n2804_13878.t23 vdd.t252 sky130_fd_pr__pfet_01v8 ad=1.485 pd=9.33 as=1.485 ps=9.33 w=9 l=0.5
X107 vdd.t157 a_n9628_8799.t76 CSoutput.t44 vdd.t14 sky130_fd_pr__pfet_01v8 ad=1.32 pd=8.33 as=1.32 ps=8.33 w=8 l=0.5
X108 a_n3827_n3924.t33 plus.t13 a_n9628_8799.t4 gnd.t32 sky130_fd_pr__nfet_01v8 ad=1.155 pd=7.33 as=1.155 ps=7.33 w=7 l=0.9
X109 a_n9628_8799.t32 a_n2982_13878.t76 a_n2982_8322.t30 vdd.t241 sky130_fd_pr__pfet_01v8 ad=1.485 pd=9.33 as=1.485 ps=9.33 w=9 l=0.5
X110 a_n2982_13878.t45 a_n2982_13878.t44 a_n2804_13878.t22 vdd.t204 sky130_fd_pr__pfet_01v8 ad=3.51 pd=18.78 as=1.485 ps=9.33 w=9 l=0.5
X111 outputibias.t7 outputibias.t6 gnd.t56 gnd.t55 sky130_fd_pr__nfet_01v8 ad=2.34 pd=12.78 as=2.34 ps=12.78 w=6 l=2
X112 commonsourceibias.t39 commonsourceibias.t38 gnd.t326 gnd.t222 sky130_fd_pr__nfet_01v8 ad=1.155 pd=7.33 as=1.155 ps=7.33 w=7 l=1
X113 gnd.t324 commonsourceibias.t80 CSoutput.t159 gnd.t236 sky130_fd_pr__nfet_01v8 ad=1.155 pd=7.33 as=1.155 ps=7.33 w=7 l=1
X114 gnd.t155 gnd.t153 gnd.t154 gnd.t73 sky130_fd_pr__nfet_01v8 ad=2.73 pd=14.78 as=0 ps=0 w=7 l=1
X115 CSoutput.t158 commonsourceibias.t81 gnd.t323 gnd.t216 sky130_fd_pr__nfet_01v8 ad=1.155 pd=7.33 as=1.155 ps=7.33 w=7 l=1
X116 gnd.t322 commonsourceibias.t62 commonsourceibias.t63 gnd.t220 sky130_fd_pr__nfet_01v8 ad=1.155 pd=7.33 as=1.155 ps=7.33 w=7 l=1
X117 CSoutput.t45 a_n9628_8799.t77 vdd.t158 vdd.t18 sky130_fd_pr__pfet_01v8 ad=1.32 pd=8.33 as=1.32 ps=8.33 w=8 l=0.5
X118 CSoutput.t157 commonsourceibias.t82 gnd.t321 gnd.t276 sky130_fd_pr__nfet_01v8 ad=1.155 pd=7.33 as=1.155 ps=7.33 w=7 l=1
X119 vdd.t115 a_n9628_8799.t78 CSoutput.t18 vdd.t114 sky130_fd_pr__pfet_01v8 ad=3.12 pd=16.78 as=1.32 ps=8.33 w=8 l=0.5
X120 CSoutput.t19 a_n9628_8799.t79 vdd.t117 vdd.t116 sky130_fd_pr__pfet_01v8 ad=1.32 pd=8.33 as=3.12 ps=16.78 w=8 l=0.5
X121 diffpairibias.t15 diffpairibias.t14 gnd.t371 gnd.t370 sky130_fd_pr__nfet_01v8 ad=2.73 pd=14.78 as=2.73 ps=14.78 w=7 l=1
X122 vdd.t82 vdd.t80 vdd.t81 vdd.t73 sky130_fd_pr__pfet_01v8 ad=3.51 pd=18.78 as=0 ps=0 w=9 l=0.5
X123 CSoutput.t22 a_n9628_8799.t80 vdd.t123 vdd.t122 sky130_fd_pr__pfet_01v8 ad=1.32 pd=8.33 as=1.32 ps=8.33 w=8 l=0.5
X124 vdd.t79 vdd.t76 vdd.t78 vdd.t77 sky130_fd_pr__pfet_01v8 ad=3.51 pd=18.78 as=0 ps=0 w=9 l=0.5
X125 gnd.t320 commonsourceibias.t83 CSoutput.t156 gnd.t226 sky130_fd_pr__nfet_01v8 ad=2.73 pd=14.78 as=1.155 ps=7.33 w=7 l=1
X126 a_n2804_13878.t21 a_n2982_13878.t14 a_n2982_13878.t15 vdd.t214 sky130_fd_pr__pfet_01v8 ad=1.485 pd=9.33 as=3.51 ps=18.78 w=9 l=0.5
X127 CSoutput.t23 a_n9628_8799.t81 vdd.t125 vdd.t124 sky130_fd_pr__pfet_01v8 ad=1.32 pd=8.33 as=1.32 ps=8.33 w=8 l=0.5
X128 vdd.t284 a_n9628_8799.t82 CSoutput.t192 vdd.t12 sky130_fd_pr__pfet_01v8 ad=1.32 pd=8.33 as=1.32 ps=8.33 w=8 l=0.5
X129 vdd.t251 a_n2982_13878.t77 a_n2982_8322.t13 vdd.t250 sky130_fd_pr__pfet_01v8 ad=1.485 pd=9.33 as=1.485 ps=9.33 w=9 l=0.5
X130 gnd.t319 commonsourceibias.t60 commonsourceibias.t61 gnd.t213 sky130_fd_pr__nfet_01v8 ad=1.155 pd=7.33 as=1.155 ps=7.33 w=7 l=1
X131 a_n2982_13878.t35 a_n2982_13878.t34 a_n2804_13878.t20 vdd.t212 sky130_fd_pr__pfet_01v8 ad=1.485 pd=9.33 as=1.485 ps=9.33 w=9 l=0.5
X132 CSoutput.t155 commonsourceibias.t84 gnd.t318 gnd.t229 sky130_fd_pr__nfet_01v8 ad=1.155 pd=7.33 as=1.155 ps=7.33 w=7 l=1
X133 output.t18 CSoutput.t219 vdd.t110 gnd.t19 sky130_fd_pr__nfet_01v8 ad=0.825 pd=5.33 as=0.825 ps=5.33 w=5 l=1
X134 CSoutput.t154 commonsourceibias.t85 gnd.t314 gnd.t271 sky130_fd_pr__nfet_01v8 ad=1.155 pd=7.33 as=1.155 ps=7.33 w=7 l=1
X135 a_n2982_8322.t12 a_n2982_13878.t78 vdd.t249 vdd.t248 sky130_fd_pr__pfet_01v8 ad=1.485 pd=9.33 as=1.485 ps=9.33 w=9 l=0.5
X136 a_n3827_n3924.t7 diffpairibias.t23 gnd.t18 gnd.t17 sky130_fd_pr__nfet_01v8 ad=2.73 pd=14.78 as=2.73 ps=14.78 w=7 l=1
X137 CSoutput.t193 a_n9628_8799.t83 vdd.t285 vdd.t195 sky130_fd_pr__pfet_01v8 ad=1.32 pd=8.33 as=1.32 ps=8.33 w=8 l=0.5
X138 gnd.t317 commonsourceibias.t86 CSoutput.t153 gnd.t273 sky130_fd_pr__nfet_01v8 ad=1.155 pd=7.33 as=1.155 ps=7.33 w=7 l=1
X139 commonsourceibias.t57 commonsourceibias.t56 gnd.t312 gnd.t209 sky130_fd_pr__nfet_01v8 ad=1.155 pd=7.33 as=2.73 ps=14.78 w=7 l=1
X140 vdd.t247 a_n2982_13878.t79 a_n2804_13878.t31 vdd.t246 sky130_fd_pr__pfet_01v8 ad=1.485 pd=9.33 as=1.485 ps=9.33 w=9 l=0.5
X141 gnd.t313 commonsourceibias.t87 CSoutput.t152 gnd.t252 sky130_fd_pr__nfet_01v8 ad=1.155 pd=7.33 as=1.155 ps=7.33 w=7 l=1
X142 vdd.t75 vdd.t72 vdd.t74 vdd.t73 sky130_fd_pr__pfet_01v8 ad=3.51 pd=18.78 as=0 ps=0 w=9 l=0.5
X143 gnd.t316 commonsourceibias.t58 commonsourceibias.t59 gnd.t207 sky130_fd_pr__nfet_01v8 ad=1.155 pd=7.33 as=1.155 ps=7.33 w=7 l=1
X144 output.t17 CSoutput.t220 vdd.t111 gnd.t20 sky130_fd_pr__nfet_01v8 ad=0.825 pd=5.33 as=0.825 ps=5.33 w=5 l=1
X145 CSoutput.t151 commonsourceibias.t88 gnd.t315 gnd.t242 sky130_fd_pr__nfet_01v8 ad=1.155 pd=7.33 as=1.155 ps=7.33 w=7 l=1
X146 gnd.t311 commonsourceibias.t89 CSoutput.t150 gnd.t205 sky130_fd_pr__nfet_01v8 ad=1.155 pd=7.33 as=1.155 ps=7.33 w=7 l=1
X147 a_n2804_13878.t19 a_n2982_13878.t52 a_n2982_13878.t53 vdd.t245 sky130_fd_pr__pfet_01v8 ad=1.485 pd=9.33 as=1.485 ps=9.33 w=9 l=0.5
X148 vdd.t13 a_n9628_8799.t84 CSoutput.t6 vdd.t12 sky130_fd_pr__pfet_01v8 ad=1.32 pd=8.33 as=1.32 ps=8.33 w=8 l=0.5
X149 plus.t3 gnd.t150 gnd.t152 gnd.t151 sky130_fd_pr__nfet_01v8 ad=0.165 pd=1.33 as=0.165 ps=1.33 w=1 l=0.5
X150 vdd.t15 a_n9628_8799.t85 CSoutput.t7 vdd.t14 sky130_fd_pr__pfet_01v8 ad=1.32 pd=8.33 as=1.32 ps=8.33 w=8 l=0.5
X151 a_n2982_8322.t29 a_n2982_13878.t80 a_n9628_8799.t16 vdd.t231 sky130_fd_pr__pfet_01v8 ad=1.485 pd=9.33 as=1.485 ps=9.33 w=9 l=0.5
X152 CSoutput.t149 commonsourceibias.t90 gnd.t310 gnd.t197 sky130_fd_pr__nfet_01v8 ad=1.155 pd=7.33 as=1.155 ps=7.33 w=7 l=1
X153 gnd.t149 gnd.t147 minus.t3 gnd.t148 sky130_fd_pr__nfet_01v8 ad=0.165 pd=1.33 as=0.165 ps=1.33 w=1 l=0.5
X154 a_n9628_8799.t41 plus.t14 a_n3827_n3924.t32 gnd.t7 sky130_fd_pr__nfet_01v8 ad=1.155 pd=7.33 as=2.73 ps=14.78 w=7 l=0.9
X155 vdd.t71 vdd.t69 vdd.t70 vdd.t46 sky130_fd_pr__pfet_01v8 ad=3.12 pd=16.78 as=0 ps=0 w=8 l=0.5
X156 commonsourceibias.t55 commonsourceibias.t54 gnd.t309 gnd.t201 sky130_fd_pr__nfet_01v8 ad=1.155 pd=7.33 as=1.155 ps=7.33 w=7 l=1
X157 a_n2982_13878.t63 minus.t9 a_n3827_n3924.t45 gnd.t50 sky130_fd_pr__nfet_01v8 ad=1.155 pd=7.33 as=2.73 ps=14.78 w=7 l=0.9
X158 vdd.t68 vdd.t65 vdd.t67 vdd.t66 sky130_fd_pr__pfet_01v8 ad=3.51 pd=18.78 as=0 ps=0 w=9 l=0.5
X159 a_n2982_8322.t11 a_n2982_13878.t81 vdd.t244 vdd.t243 sky130_fd_pr__pfet_01v8 ad=3.51 pd=18.78 as=1.485 ps=9.33 w=9 l=0.5
X160 a_n9628_8799.t18 a_n2982_13878.t82 a_n2982_8322.t28 vdd.t211 sky130_fd_pr__pfet_01v8 ad=1.485 pd=9.33 as=1.485 ps=9.33 w=9 l=0.5
X161 gnd.t308 commonsourceibias.t91 CSoutput.t148 gnd.t224 sky130_fd_pr__nfet_01v8 ad=1.155 pd=7.33 as=1.155 ps=7.33 w=7 l=1
X162 a_n9628_8799.t43 plus.t15 a_n3827_n3924.t31 gnd.t4 sky130_fd_pr__nfet_01v8 ad=1.155 pd=7.33 as=1.155 ps=7.33 w=7 l=0.9
X163 gnd.t146 gnd.t144 gnd.t145 gnd.t91 sky130_fd_pr__nfet_01v8 ad=2.73 pd=14.78 as=0 ps=0 w=7 l=1
X164 CSoutput.t42 a_n9628_8799.t86 vdd.t154 vdd.t4 sky130_fd_pr__pfet_01v8 ad=1.32 pd=8.33 as=1.32 ps=8.33 w=8 l=0.5
X165 diffpairibias.t13 diffpairibias.t12 gnd.t14 gnd.t13 sky130_fd_pr__nfet_01v8 ad=2.73 pd=14.78 as=2.73 ps=14.78 w=7 l=1
X166 vdd.t156 a_n9628_8799.t87 CSoutput.t43 vdd.t155 sky130_fd_pr__pfet_01v8 ad=1.32 pd=8.33 as=1.32 ps=8.33 w=8 l=0.5
X167 a_n2982_13878.t25 a_n2982_13878.t24 a_n2804_13878.t18 vdd.t225 sky130_fd_pr__pfet_01v8 ad=1.485 pd=9.33 as=1.485 ps=9.33 w=9 l=0.5
X168 a_n9628_8799.t39 a_n2982_13878.t83 a_n2982_8322.t27 vdd.t242 sky130_fd_pr__pfet_01v8 ad=1.485 pd=9.33 as=1.485 ps=9.33 w=9 l=0.5
X169 CSoutput.t70 a_n9628_8799.t88 vdd.t188 vdd.t18 sky130_fd_pr__pfet_01v8 ad=1.32 pd=8.33 as=1.32 ps=8.33 w=8 l=0.5
X170 CSoutput.t71 a_n9628_8799.t89 vdd.t189 vdd.t8 sky130_fd_pr__pfet_01v8 ad=1.32 pd=8.33 as=1.32 ps=8.33 w=8 l=0.5
X171 gnd.t306 commonsourceibias.t52 commonsourceibias.t53 gnd.t205 sky130_fd_pr__nfet_01v8 ad=1.155 pd=7.33 as=1.155 ps=7.33 w=7 l=1
X172 a_n2804_13878.t17 a_n2982_13878.t50 a_n2982_13878.t51 vdd.t241 sky130_fd_pr__pfet_01v8 ad=1.485 pd=9.33 as=1.485 ps=9.33 w=9 l=0.5
X173 gnd.t307 commonsourceibias.t92 CSoutput.t147 gnd.t234 sky130_fd_pr__nfet_01v8 ad=1.155 pd=7.33 as=1.155 ps=7.33 w=7 l=1
X174 output.t16 CSoutput.t221 vdd.t112 gnd.t21 sky130_fd_pr__nfet_01v8 ad=0.825 pd=5.33 as=0.825 ps=5.33 w=5 l=1
X175 gnd.t305 commonsourceibias.t93 CSoutput.t146 gnd.t213 sky130_fd_pr__nfet_01v8 ad=1.155 pd=7.33 as=1.155 ps=7.33 w=7 l=1
X176 vdd.t64 vdd.t62 vdd.t63 vdd.t25 sky130_fd_pr__pfet_01v8 ad=3.51 pd=18.78 as=0 ps=0 w=9 l=0.5
X177 CSoutput.t190 a_n9628_8799.t90 vdd.t282 vdd.t160 sky130_fd_pr__pfet_01v8 ad=1.32 pd=8.33 as=1.32 ps=8.33 w=8 l=0.5
X178 gnd.t143 gnd.t141 minus.t2 gnd.t142 sky130_fd_pr__nfet_01v8 ad=0.39 pd=2.78 as=0.165 ps=1.33 w=1 l=0.5
X179 vdd.t240 a_n2982_13878.t84 a_n2982_8322.t10 vdd.t239 sky130_fd_pr__pfet_01v8 ad=1.485 pd=9.33 as=3.51 ps=18.78 w=9 l=0.5
X180 a_n2804_13878.t16 a_n2982_13878.t38 a_n2982_13878.t39 vdd.t238 sky130_fd_pr__pfet_01v8 ad=1.485 pd=9.33 as=1.485 ps=9.33 w=9 l=0.5
X181 vdd.t283 a_n9628_8799.t91 CSoutput.t191 vdd.t150 sky130_fd_pr__pfet_01v8 ad=1.32 pd=8.33 as=1.32 ps=8.33 w=8 l=0.5
X182 vdd.t300 a_n9628_8799.t92 CSoutput.t208 vdd.t148 sky130_fd_pr__pfet_01v8 ad=1.32 pd=8.33 as=1.32 ps=8.33 w=8 l=0.5
X183 gnd.t140 gnd.t138 gnd.t139 gnd.t91 sky130_fd_pr__nfet_01v8 ad=2.73 pd=14.78 as=0 ps=0 w=7 l=1
X184 output.t2 outputibias.t9 gnd.t67 gnd.t66 sky130_fd_pr__nfet_01v8 ad=2.34 pd=12.78 as=2.34 ps=12.78 w=6 l=2
X185 a_n2982_13878.t66 minus.t10 a_n3827_n3924.t48 gnd.t12 sky130_fd_pr__nfet_01v8 ad=1.155 pd=7.33 as=1.155 ps=7.33 w=7 l=0.9
X186 a_n3827_n3924.t30 plus.t16 a_n9628_8799.t42 gnd.t23 sky130_fd_pr__nfet_01v8 ad=1.155 pd=7.33 as=1.155 ps=7.33 w=7 l=0.9
X187 a_n2982_13878.t23 a_n2982_13878.t22 a_n2804_13878.t15 vdd.t208 sky130_fd_pr__pfet_01v8 ad=1.485 pd=9.33 as=1.485 ps=9.33 w=9 l=0.5
X188 gnd.t137 gnd.t134 gnd.t136 gnd.t135 sky130_fd_pr__nfet_01v8 ad=1.95 pd=10.78 as=0 ps=0 w=5 l=1
X189 gnd.t133 gnd.t131 gnd.t132 gnd.t105 sky130_fd_pr__nfet_01v8 ad=2.73 pd=14.78 as=0 ps=0 w=7 l=1
X190 outputibias.t5 outputibias.t4 gnd.t367 gnd.t366 sky130_fd_pr__nfet_01v8 ad=2.34 pd=12.78 as=2.34 ps=12.78 w=6 l=2
X191 vdd.t113 CSoutput.t222 output.t15 gnd.t22 sky130_fd_pr__nfet_01v8 ad=0.825 pd=5.33 as=0.825 ps=5.33 w=5 l=1
X192 CSoutput.t145 commonsourceibias.t94 gnd.t304 gnd.t203 sky130_fd_pr__nfet_01v8 ad=1.155 pd=7.33 as=1.155 ps=7.33 w=7 l=1
X193 gnd.t303 commonsourceibias.t95 CSoutput.t144 gnd.t238 sky130_fd_pr__nfet_01v8 ad=1.155 pd=7.33 as=1.155 ps=7.33 w=7 l=1
X194 vdd.t301 a_n9628_8799.t93 CSoutput.t209 vdd.t166 sky130_fd_pr__pfet_01v8 ad=1.32 pd=8.33 as=1.32 ps=8.33 w=8 l=0.5
X195 vdd.t152 a_n9628_8799.t94 CSoutput.t40 vdd.t114 sky130_fd_pr__pfet_01v8 ad=3.12 pd=16.78 as=1.32 ps=8.33 w=8 l=0.5
X196 gnd.t302 commonsourceibias.t96 CSoutput.t143 gnd.t236 sky130_fd_pr__nfet_01v8 ad=1.155 pd=7.33 as=1.155 ps=7.33 w=7 l=1
X197 CSoutput.t41 a_n9628_8799.t95 vdd.t153 vdd.t129 sky130_fd_pr__pfet_01v8 ad=1.32 pd=8.33 as=1.32 ps=8.33 w=8 l=0.5
X198 a_n3827_n3924.t11 diffpairibias.t24 gnd.t29 gnd.t28 sky130_fd_pr__nfet_01v8 ad=2.73 pd=14.78 as=2.73 ps=14.78 w=7 l=1
X199 vdd.t61 vdd.t59 vdd.t60 vdd.t33 sky130_fd_pr__pfet_01v8 ad=3.12 pd=16.78 as=0 ps=0 w=8 l=0.5
X200 a_n3827_n3924.t0 diffpairibias.t25 gnd.t2 gnd.t1 sky130_fd_pr__nfet_01v8 ad=2.73 pd=14.78 as=2.73 ps=14.78 w=7 l=1
X201 outputibias.t3 outputibias.t2 gnd.t26 gnd.t25 sky130_fd_pr__nfet_01v8 ad=2.34 pd=12.78 as=2.34 ps=12.78 w=6 l=2
X202 a_n9628_8799.t9 plus.t17 a_n3827_n3924.t29 gnd.t41 sky130_fd_pr__nfet_01v8 ad=1.155 pd=7.33 as=1.155 ps=7.33 w=7 l=0.9
X203 vdd.t182 a_n9628_8799.t96 CSoutput.t64 vdd.t148 sky130_fd_pr__pfet_01v8 ad=1.32 pd=8.33 as=1.32 ps=8.33 w=8 l=0.5
X204 vdd.t183 a_n9628_8799.t97 CSoutput.t65 vdd.t137 sky130_fd_pr__pfet_01v8 ad=1.32 pd=8.33 as=1.32 ps=8.33 w=8 l=0.5
X205 CSoutput.t188 a_n9628_8799.t98 vdd.t280 vdd.t98 sky130_fd_pr__pfet_01v8 ad=1.32 pd=8.33 as=1.32 ps=8.33 w=8 l=0.5
X206 gnd.t130 gnd.t128 gnd.t129 gnd.t73 sky130_fd_pr__nfet_01v8 ad=2.73 pd=14.78 as=0 ps=0 w=7 l=1
X207 vdd.t58 vdd.t56 vdd.t57 vdd.t46 sky130_fd_pr__pfet_01v8 ad=3.12 pd=16.78 as=0 ps=0 w=8 l=0.5
X208 a_n9628_8799.t0 plus.t18 a_n3827_n3924.t28 gnd.t0 sky130_fd_pr__nfet_01v8 ad=1.155 pd=7.33 as=1.155 ps=7.33 w=7 l=0.9
X209 a_n2804_13878.t14 a_n2982_13878.t30 a_n2982_13878.t31 vdd.t213 sky130_fd_pr__pfet_01v8 ad=1.485 pd=9.33 as=1.485 ps=9.33 w=9 l=0.5
X210 gnd.t127 gnd.t125 gnd.t126 gnd.t73 sky130_fd_pr__nfet_01v8 ad=2.73 pd=14.78 as=0 ps=0 w=7 l=1
X211 a_n2982_8322.t26 a_n2982_13878.t85 a_n9628_8799.t17 vdd.t237 sky130_fd_pr__pfet_01v8 ad=1.485 pd=9.33 as=1.485 ps=9.33 w=9 l=0.5
X212 CSoutput.t189 a_n9628_8799.t99 vdd.t281 vdd.t8 sky130_fd_pr__pfet_01v8 ad=1.32 pd=8.33 as=1.32 ps=8.33 w=8 l=0.5
X213 CSoutput.t206 a_n9628_8799.t100 vdd.t298 vdd.t133 sky130_fd_pr__pfet_01v8 ad=1.32 pd=8.33 as=1.32 ps=8.33 w=8 l=0.5
X214 vdd.t264 CSoutput.t223 output.t14 gnd.t362 sky130_fd_pr__nfet_01v8 ad=0.825 pd=5.33 as=0.825 ps=5.33 w=5 l=1
X215 CSoutput.t142 commonsourceibias.t97 gnd.t301 gnd.t285 sky130_fd_pr__nfet_01v8 ad=1.155 pd=7.33 as=1.155 ps=7.33 w=7 l=1
X216 output.t13 CSoutput.t224 vdd.t265 gnd.t363 sky130_fd_pr__nfet_01v8 ad=0.825 pd=5.33 as=0.825 ps=5.33 w=5 l=1
X217 gnd.t124 gnd.t122 gnd.t123 gnd.t69 sky130_fd_pr__nfet_01v8 ad=2.73 pd=14.78 as=0 ps=0 w=7 l=1
X218 gnd.t300 commonsourceibias.t98 CSoutput.t141 gnd.t252 sky130_fd_pr__nfet_01v8 ad=1.155 pd=7.33 as=1.155 ps=7.33 w=7 l=1
X219 diffpairibias.t11 diffpairibias.t10 gnd.t369 gnd.t368 sky130_fd_pr__nfet_01v8 ad=2.73 pd=14.78 as=2.73 ps=14.78 w=7 l=1
X220 a_n2804_13878.t1 a_n2982_13878.t86 vdd.t236 vdd.t235 sky130_fd_pr__pfet_01v8 ad=1.485 pd=9.33 as=1.485 ps=9.33 w=9 l=0.5
X221 a_n2982_13878.t61 minus.t11 a_n3827_n3924.t43 gnd.t61 sky130_fd_pr__nfet_01v8 ad=1.155 pd=7.33 as=1.155 ps=7.33 w=7 l=0.9
X222 vdd.t234 a_n2982_13878.t87 a_n2804_13878.t0 vdd.t233 sky130_fd_pr__pfet_01v8 ad=1.485 pd=9.33 as=1.485 ps=9.33 w=9 l=0.5
X223 CSoutput.t207 a_n9628_8799.t101 vdd.t299 vdd.t160 sky130_fd_pr__pfet_01v8 ad=1.32 pd=8.33 as=1.32 ps=8.33 w=8 l=0.5
X224 gnd.t299 commonsourceibias.t99 CSoutput.t140 gnd.t267 sky130_fd_pr__nfet_01v8 ad=1.155 pd=7.33 as=1.155 ps=7.33 w=7 l=1
X225 CSoutput.t139 commonsourceibias.t100 gnd.t298 gnd.t209 sky130_fd_pr__nfet_01v8 ad=1.155 pd=7.33 as=2.73 ps=14.78 w=7 l=1
X226 a_n3827_n3924.t27 plus.t19 a_n9628_8799.t13 gnd.t3 sky130_fd_pr__nfet_01v8 ad=1.155 pd=7.33 as=1.155 ps=7.33 w=7 l=0.9
X227 vdd.t149 a_n9628_8799.t102 CSoutput.t38 vdd.t148 sky130_fd_pr__pfet_01v8 ad=1.32 pd=8.33 as=1.32 ps=8.33 w=8 l=0.5
X228 vdd.t151 a_n9628_8799.t103 CSoutput.t39 vdd.t150 sky130_fd_pr__pfet_01v8 ad=1.32 pd=8.33 as=1.32 ps=8.33 w=8 l=0.5
X229 output.t12 CSoutput.t225 vdd.t266 gnd.t364 sky130_fd_pr__nfet_01v8 ad=0.825 pd=5.33 as=0.825 ps=5.33 w=5 l=1
X230 vdd.t278 a_n9628_8799.t104 CSoutput.t186 vdd.t14 sky130_fd_pr__pfet_01v8 ad=1.32 pd=8.33 as=1.32 ps=8.33 w=8 l=0.5
X231 CSoutput.t187 a_n9628_8799.t105 vdd.t279 vdd.t10 sky130_fd_pr__pfet_01v8 ad=1.32 pd=8.33 as=1.32 ps=8.33 w=8 l=0.5
X232 a_n2804_13878.t13 a_n2982_13878.t28 a_n2982_13878.t29 vdd.t232 sky130_fd_pr__pfet_01v8 ad=1.485 pd=9.33 as=1.485 ps=9.33 w=9 l=0.5
X233 diffpairibias.t9 diffpairibias.t8 gnd.t39 gnd.t38 sky130_fd_pr__nfet_01v8 ad=2.73 pd=14.78 as=2.73 ps=14.78 w=7 l=1
X234 gnd.t297 commonsourceibias.t101 CSoutput.t138 gnd.t234 sky130_fd_pr__nfet_01v8 ad=1.155 pd=7.33 as=1.155 ps=7.33 w=7 l=1
X235 vdd.t294 a_n9628_8799.t106 CSoutput.t202 vdd.t114 sky130_fd_pr__pfet_01v8 ad=3.12 pd=16.78 as=1.32 ps=8.33 w=8 l=0.5
X236 vdd.t295 a_n9628_8799.t107 CSoutput.t203 vdd.t166 sky130_fd_pr__pfet_01v8 ad=1.32 pd=8.33 as=1.32 ps=8.33 w=8 l=0.5
X237 commonsourceibias.t17 commonsourceibias.t16 gnd.t296 gnd.t285 sky130_fd_pr__nfet_01v8 ad=1.155 pd=7.33 as=1.155 ps=7.33 w=7 l=1
X238 CSoutput.t26 a_n9628_8799.t108 vdd.t130 vdd.t129 sky130_fd_pr__pfet_01v8 ad=1.32 pd=8.33 as=1.32 ps=8.33 w=8 l=0.5
X239 a_n3827_n3924.t42 minus.t12 a_n2982_13878.t60 gnd.t49 sky130_fd_pr__nfet_01v8 ad=1.155 pd=7.33 as=1.155 ps=7.33 w=7 l=0.9
X240 a_n2982_8322.t25 a_n2982_13878.t88 a_n9628_8799.t38 vdd.t200 sky130_fd_pr__pfet_01v8 ad=1.485 pd=9.33 as=1.485 ps=9.33 w=9 l=0.5
X241 a_n2982_13878.t59 a_n2982_13878.t58 a_n2804_13878.t12 vdd.t231 sky130_fd_pr__pfet_01v8 ad=1.485 pd=9.33 as=1.485 ps=9.33 w=9 l=0.5
X242 CSoutput.t27 a_n9628_8799.t109 vdd.t131 vdd.t102 sky130_fd_pr__pfet_01v8 ad=1.32 pd=8.33 as=3.12 ps=16.78 w=8 l=0.5
X243 outputibias.t1 outputibias.t0 gnd.t31 gnd.t30 sky130_fd_pr__nfet_01v8 ad=2.34 pd=12.78 as=2.34 ps=12.78 w=6 l=2
X244 diffpairibias.t7 diffpairibias.t6 gnd.t48 gnd.t47 sky130_fd_pr__nfet_01v8 ad=2.73 pd=14.78 as=2.73 ps=14.78 w=7 l=1
X245 vdd.t136 a_n9628_8799.t110 CSoutput.t30 vdd.t135 sky130_fd_pr__pfet_01v8 ad=3.12 pd=16.78 as=1.32 ps=8.33 w=8 l=0.5
X246 a_n2804_13878.t11 a_n2982_13878.t54 a_n2982_13878.t55 vdd.t230 sky130_fd_pr__pfet_01v8 ad=1.485 pd=9.33 as=1.485 ps=9.33 w=9 l=0.5