* NGSPICE file created from opamp.ext - technology: sky130A

.subckt opamp output vdd plus minus commonsourceibias outputibias diffpairibias gnd CSoutput
Cload output gnd 0.0p
X0 gnd.t339 commonsourceibias.t80 CSoutput.t147 gnd.t190 sky130_fd_pr__nfet_01v8 ad=1.155 pd=7.33 as=1.155 ps=7.33 w=7 l=1
X1 commonsourceibias.t73 commonsourceibias.t72 gnd.t338 gnd.t304 sky130_fd_pr__nfet_01v8 ad=1.155 pd=7.33 as=1.155 ps=7.33 w=7 l=1
X2 outputibias.t7 outputibias.t6 gnd.t35 gnd.t34 sky130_fd_pr__nfet_01v8 ad=2.34 pd=12.78 as=2.34 ps=12.78 w=6 l=2
X3 gnd.t178 gnd.t176 gnd.t177 gnd.t85 sky130_fd_pr__nfet_01v8 ad=2.73 pd=14.78 as=0 ps=0 w=7 l=1
X4 a_n1986_8322.t10 a_n2848_n452.t48 vdd.t129 vdd.t128 sky130_fd_pr__pfet_01v8_lvt ad=1.485 pd=9.33 as=1.485 ps=9.33 w=9 l=0.5
X5 a_n1808_13878.t19 a_n2848_n452.t11 a_n2848_n452.t12 vdd.t125 sky130_fd_pr__pfet_01v8_lvt ad=1.485 pd=9.33 as=3.51 ps=18.78 w=9 l=0.5
X6 a_n6972_8799.t35 plus.t5 a_n3106_n452.t30 gnd.t8 sky130_fd_pr__nfet_01v8 ad=1.155 pd=7.33 as=1.155 ps=7.33 w=7 l=0.9
X7 vdd.t181 a_n6972_8799.t36 CSoutput.t36 vdd.t180 sky130_fd_pr__pfet_01v8_lvt ad=1.32 pd=8.33 as=1.32 ps=8.33 w=8 l=0.5
X8 a_n3106_n452.t36 plus.t6 a_n6972_8799.t34 gnd.t3 sky130_fd_pr__nfet_01v8 ad=1.155 pd=7.33 as=1.155 ps=7.33 w=7 l=0.9
X9 gnd.t337 commonsourceibias.t81 CSoutput.t146 gnd.t297 sky130_fd_pr__nfet_01v8 ad=1.155 pd=7.33 as=1.155 ps=7.33 w=7 l=1
X10 vdd.t215 CSoutput.t176 output.t19 gnd.t67 sky130_fd_pr__nfet_01v8_lvt ad=0.825 pd=5.33 as=0.825 ps=5.33 w=5 l=1
X11 CSoutput.t177 a_n1986_8322.t20 sky130_fd_pr__cap_mim_m3_1 l=12 w=12
X12 vdd.t81 vdd.t79 vdd.t80 vdd.t57 sky130_fd_pr__pfet_01v8_lvt ad=3.51 pd=18.78 as=0 ps=0 w=9 l=0.5
X13 a_n2848_n452.t20 a_n2848_n452.t19 a_n1808_13878.t18 vdd.t107 sky130_fd_pr__pfet_01v8_lvt ad=1.485 pd=9.33 as=1.485 ps=9.33 w=9 l=0.5
X14 gnd.t336 commonsourceibias.t82 CSoutput.t145 gnd.t217 sky130_fd_pr__nfet_01v8 ad=1.155 pd=7.33 as=1.155 ps=7.33 w=7 l=1
X15 gnd.t335 commonsourceibias.t70 commonsourceibias.t71 gnd.t215 sky130_fd_pr__nfet_01v8 ad=1.155 pd=7.33 as=1.155 ps=7.33 w=7 l=1
X16 CSoutput.t8 a_n6972_8799.t37 vdd.t136 vdd.t0 sky130_fd_pr__pfet_01v8_lvt ad=1.32 pd=8.33 as=1.32 ps=8.33 w=8 l=0.5
X17 a_n1808_13878.t7 a_n2848_n452.t49 vdd.t127 vdd.t126 sky130_fd_pr__pfet_01v8_lvt ad=1.485 pd=9.33 as=1.485 ps=9.33 w=9 l=0.5
X18 a_n1808_13878.t17 a_n2848_n452.t29 a_n2848_n452.t30 vdd.t115 sky130_fd_pr__pfet_01v8_lvt ad=1.485 pd=9.33 as=1.485 ps=9.33 w=9 l=0.5
X19 gnd.t334 commonsourceibias.t83 CSoutput.t144 gnd.t215 sky130_fd_pr__nfet_01v8 ad=1.155 pd=7.33 as=1.155 ps=7.33 w=7 l=1
X20 vdd.t162 a_n6972_8799.t38 CSoutput.t25 vdd.t147 sky130_fd_pr__pfet_01v8_lvt ad=1.32 pd=8.33 as=1.32 ps=8.33 w=8 l=0.5
X21 CSoutput.t167 a_n6972_8799.t39 vdd.t255 vdd.t186 sky130_fd_pr__pfet_01v8_lvt ad=1.32 pd=8.33 as=1.32 ps=8.33 w=8 l=0.5
X22 vdd.t78 vdd.t76 vdd.t77 vdd.t11 sky130_fd_pr__pfet_01v8_lvt ad=3.12 pd=16.78 as=0 ps=0 w=8 l=0.5
X23 gnd.t333 commonsourceibias.t84 CSoutput.t143 gnd.t212 sky130_fd_pr__nfet_01v8 ad=1.155 pd=7.33 as=1.155 ps=7.33 w=7 l=1
X24 outputibias.t5 outputibias.t4 gnd.t22 gnd.t21 sky130_fd_pr__nfet_01v8 ad=2.34 pd=12.78 as=2.34 ps=12.78 w=6 l=2
X25 CSoutput.t1 a_n6972_8799.t40 vdd.t3 vdd.t2 sky130_fd_pr__pfet_01v8_lvt ad=1.32 pd=8.33 as=1.32 ps=8.33 w=8 l=0.5
X26 gnd.t332 commonsourceibias.t85 CSoutput.t142 gnd.t229 sky130_fd_pr__nfet_01v8 ad=1.155 pd=7.33 as=1.155 ps=7.33 w=7 l=1
X27 output.t18 CSoutput.t178 vdd.t213 gnd.t66 sky130_fd_pr__nfet_01v8_lvt ad=0.825 pd=5.33 as=0.825 ps=5.33 w=5 l=1
X28 a_n2848_n452.t45 minus.t5 a_n3106_n452.t53 gnd.t24 sky130_fd_pr__nfet_01v8 ad=1.155 pd=7.33 as=1.155 ps=7.33 w=7 l=0.9
X29 a_n1986_8322.t17 a_n2848_n452.t50 a_n6972_8799.t11 vdd.t124 sky130_fd_pr__pfet_01v8_lvt ad=1.485 pd=9.33 as=1.485 ps=9.33 w=9 l=0.5
X30 gnd.t331 commonsourceibias.t62 commonsourceibias.t63 gnd.t240 sky130_fd_pr__nfet_01v8 ad=1.155 pd=7.33 as=1.155 ps=7.33 w=7 l=1
X31 a_n6972_8799.t33 plus.t7 a_n3106_n452.t35 gnd.t20 sky130_fd_pr__nfet_01v8 ad=1.155 pd=7.33 as=1.155 ps=7.33 w=7 l=0.9
X32 a_n2848_n452.t35 minus.t6 a_n3106_n452.t14 gnd.t9 sky130_fd_pr__nfet_01v8 ad=1.155 pd=7.33 as=1.155 ps=7.33 w=7 l=0.9
X33 plus.t4 gnd.t173 gnd.t175 gnd.t174 sky130_fd_pr__nfet_01v8 ad=0.165 pd=1.33 as=0.165 ps=1.33 w=1 l=0.5
X34 CSoutput.t37 a_n6972_8799.t41 vdd.t183 vdd.t182 sky130_fd_pr__pfet_01v8_lvt ad=1.32 pd=8.33 as=1.32 ps=8.33 w=8 l=0.5
X35 vdd.t256 a_n6972_8799.t42 CSoutput.t168 vdd.t236 sky130_fd_pr__pfet_01v8_lvt ad=1.32 pd=8.33 as=1.32 ps=8.33 w=8 l=0.5
X36 CSoutput.t133 commonsourceibias.t86 gnd.t330 gnd.t206 sky130_fd_pr__nfet_01v8 ad=1.155 pd=7.33 as=1.155 ps=7.33 w=7 l=1
X37 gnd.t329 commonsourceibias.t60 commonsourceibias.t61 gnd.t293 sky130_fd_pr__nfet_01v8 ad=1.155 pd=7.33 as=1.155 ps=7.33 w=7 l=1
X38 vdd.t142 a_n6972_8799.t43 CSoutput.t11 vdd.t141 sky130_fd_pr__pfet_01v8_lvt ad=1.32 pd=8.33 as=1.32 ps=8.33 w=8 l=0.5
X39 CSoutput.t132 commonsourceibias.t87 gnd.t328 gnd.t200 sky130_fd_pr__nfet_01v8 ad=1.155 pd=7.33 as=1.155 ps=7.33 w=7 l=1
X40 CSoutput.t19 a_n6972_8799.t44 vdd.t153 vdd.t4 sky130_fd_pr__pfet_01v8_lvt ad=1.32 pd=8.33 as=1.32 ps=8.33 w=8 l=0.5
X41 a_n3106_n452.t43 plus.t8 a_n6972_8799.t32 gnd.t25 sky130_fd_pr__nfet_01v8 ad=1.155 pd=7.33 as=1.155 ps=7.33 w=7 l=0.9
X42 CSoutput.t131 commonsourceibias.t88 gnd.t327 gnd.t198 sky130_fd_pr__nfet_01v8 ad=1.155 pd=7.33 as=1.155 ps=7.33 w=7 l=1
X43 vdd.t184 a_n6972_8799.t45 CSoutput.t38 vdd.t167 sky130_fd_pr__pfet_01v8_lvt ad=1.32 pd=8.33 as=1.32 ps=8.33 w=8 l=0.5
X44 a_n6972_8799.t10 a_n2848_n452.t51 a_n1986_8322.t18 vdd.t125 sky130_fd_pr__pfet_01v8_lvt ad=1.485 pd=9.33 as=3.51 ps=18.78 w=9 l=0.5
X45 CSoutput.t130 commonsourceibias.t89 gnd.t326 gnd.t196 sky130_fd_pr__nfet_01v8 ad=1.155 pd=7.33 as=1.155 ps=7.33 w=7 l=1
X46 a_n3106_n452.t52 diffpairibias.t16 gnd.t341 gnd.t340 sky130_fd_pr__nfet_01v8 ad=2.73 pd=14.78 as=2.73 ps=14.78 w=7 l=1
X47 a_n3106_n452.t6 minus.t7 a_n2848_n452.t4 gnd.t17 sky130_fd_pr__nfet_01v8 ad=1.155 pd=7.33 as=1.155 ps=7.33 w=7 l=0.9
X48 CSoutput.t26 a_n6972_8799.t46 vdd.t164 vdd.t163 sky130_fd_pr__pfet_01v8_lvt ad=1.32 pd=8.33 as=3.12 ps=16.78 w=8 l=0.5
X49 output.t17 CSoutput.t179 vdd.t216 gnd.t65 sky130_fd_pr__nfet_01v8_lvt ad=0.825 pd=5.33 as=0.825 ps=5.33 w=5 l=1
X50 CSoutput.t129 commonsourceibias.t90 gnd.t325 gnd.t192 sky130_fd_pr__nfet_01v8 ad=1.155 pd=7.33 as=1.155 ps=7.33 w=7 l=1
X51 vdd.t75 vdd.t73 vdd.t74 vdd.t7 sky130_fd_pr__pfet_01v8_lvt ad=3.12 pd=16.78 as=0 ps=0 w=8 l=0.5
X52 CSoutput.t0 a_n6972_8799.t47 vdd.t1 vdd.t0 sky130_fd_pr__pfet_01v8_lvt ad=1.32 pd=8.33 as=1.32 ps=8.33 w=8 l=0.5
X53 gnd.t324 commonsourceibias.t58 commonsourceibias.t59 gnd.t251 sky130_fd_pr__nfet_01v8 ad=1.155 pd=7.33 as=1.155 ps=7.33 w=7 l=1
X54 outputibias.t3 outputibias.t2 gnd.t343 gnd.t342 sky130_fd_pr__nfet_01v8 ad=2.34 pd=12.78 as=2.34 ps=12.78 w=6 l=2
X55 CSoutput.t17 a_n6972_8799.t48 vdd.t151 vdd.t150 sky130_fd_pr__pfet_01v8_lvt ad=1.32 pd=8.33 as=1.32 ps=8.33 w=8 l=0.5
X56 CSoutput.t128 commonsourceibias.t91 gnd.t323 gnd.t304 sky130_fd_pr__nfet_01v8 ad=1.155 pd=7.33 as=1.155 ps=7.33 w=7 l=1
X57 vdd.t72 vdd.t70 vdd.t71 vdd.t11 sky130_fd_pr__pfet_01v8_lvt ad=3.12 pd=16.78 as=0 ps=0 w=8 l=0.5
X58 commonsourceibias.t57 commonsourceibias.t56 gnd.t322 gnd.t273 sky130_fd_pr__nfet_01v8 ad=1.155 pd=7.33 as=2.73 ps=14.78 w=7 l=1
X59 output.t16 CSoutput.t180 vdd.t224 gnd.t64 sky130_fd_pr__nfet_01v8_lvt ad=1.95 pd=10.78 as=0.825 ps=5.33 w=5 l=1
X60 gnd.t172 gnd.t170 gnd.t171 gnd.t118 sky130_fd_pr__nfet_01v8 ad=2.73 pd=14.78 as=0 ps=0 w=7 l=0.9
X61 CSoutput.t181 a_n1986_8322.t20 sky130_fd_pr__cap_mim_m3_1 l=12 w=12
X62 CSoutput.t20 a_n6972_8799.t49 vdd.t154 vdd.t2 sky130_fd_pr__pfet_01v8_lvt ad=1.32 pd=8.33 as=1.32 ps=8.33 w=8 l=0.5
X63 a_n3106_n452.t31 plus.t9 a_n6972_8799.t31 gnd.t4 sky130_fd_pr__nfet_01v8 ad=1.155 pd=7.33 as=1.155 ps=7.33 w=7 l=0.9
X64 diffpairibias.t15 diffpairibias.t14 gnd.t37 gnd.t36 sky130_fd_pr__nfet_01v8 ad=2.73 pd=14.78 as=2.73 ps=14.78 w=7 l=1
X65 a_n3106_n452.t39 plus.t10 a_n6972_8799.t30 gnd.t19 sky130_fd_pr__nfet_01v8 ad=1.155 pd=7.33 as=1.155 ps=7.33 w=7 l=0.9
X66 a_n1808_13878.t16 a_n2848_n452.t21 a_n2848_n452.t22 vdd.t89 sky130_fd_pr__pfet_01v8_lvt ad=1.485 pd=9.33 as=3.51 ps=18.78 w=9 l=0.5
X67 vdd.t168 a_n6972_8799.t50 CSoutput.t28 vdd.t167 sky130_fd_pr__pfet_01v8_lvt ad=1.32 pd=8.33 as=1.32 ps=8.33 w=8 l=0.5
X68 a_n3106_n452.t7 minus.t8 a_n2848_n452.t5 gnd.t18 sky130_fd_pr__nfet_01v8 ad=2.73 pd=14.78 as=1.155 ps=7.33 w=7 l=0.9
X69 CSoutput.t77 a_n6972_8799.t51 vdd.t245 vdd.t205 sky130_fd_pr__pfet_01v8_lvt ad=1.32 pd=8.33 as=1.32 ps=8.33 w=8 l=0.5
X70 a_n2848_n452.t10 a_n2848_n452.t9 a_n1808_13878.t15 vdd.t99 sky130_fd_pr__pfet_01v8_lvt ad=1.485 pd=9.33 as=1.485 ps=9.33 w=9 l=0.5
X71 gnd.t169 gnd.t167 gnd.t168 gnd.t85 sky130_fd_pr__nfet_01v8 ad=2.73 pd=14.78 as=0 ps=0 w=7 l=1
X72 CSoutput.t164 a_n6972_8799.t52 vdd.t252 vdd.t182 sky130_fd_pr__pfet_01v8_lvt ad=1.32 pd=8.33 as=1.32 ps=8.33 w=8 l=0.5
X73 vdd.t69 vdd.t67 vdd.t68 vdd.t42 sky130_fd_pr__pfet_01v8_lvt ad=3.51 pd=18.78 as=0 ps=0 w=9 l=0.5
X74 vdd.t237 a_n6972_8799.t53 CSoutput.t70 vdd.t236 sky130_fd_pr__pfet_01v8_lvt ad=1.32 pd=8.33 as=1.32 ps=8.33 w=8 l=0.5
X75 gnd.t321 commonsourceibias.t92 CSoutput.t127 gnd.t297 sky130_fd_pr__nfet_01v8 ad=1.155 pd=7.33 as=1.155 ps=7.33 w=7 l=1
X76 diffpairibias.t13 diffpairibias.t12 gnd.t353 gnd.t352 sky130_fd_pr__nfet_01v8 ad=2.73 pd=14.78 as=2.73 ps=14.78 w=7 l=1
X77 gnd.t318 commonsourceibias.t93 CSoutput.t125 gnd.t180 sky130_fd_pr__nfet_01v8 ad=1.155 pd=7.33 as=1.155 ps=7.33 w=7 l=1
X78 commonsourceibias.t55 commonsourceibias.t54 gnd.t320 gnd.t206 sky130_fd_pr__nfet_01v8 ad=1.155 pd=7.33 as=1.155 ps=7.33 w=7 l=1
X79 gnd.t319 commonsourceibias.t94 CSoutput.t126 gnd.t293 sky130_fd_pr__nfet_01v8 ad=1.155 pd=7.33 as=1.155 ps=7.33 w=7 l=1
X80 CSoutput.t171 a_n6972_8799.t54 vdd.t259 vdd.t172 sky130_fd_pr__pfet_01v8_lvt ad=1.32 pd=8.33 as=1.32 ps=8.33 w=8 l=0.5
X81 vdd.t218 CSoutput.t182 output.t15 gnd.t63 sky130_fd_pr__nfet_01v8_lvt ad=0.825 pd=5.33 as=1.95 ps=10.78 w=5 l=1
X82 vdd.t85 a_n6972_8799.t55 CSoutput.t4 vdd.t84 sky130_fd_pr__pfet_01v8_lvt ad=1.32 pd=8.33 as=1.32 ps=8.33 w=8 l=0.5
X83 vdd.t185 a_n6972_8799.t56 CSoutput.t39 vdd.t167 sky130_fd_pr__pfet_01v8_lvt ad=1.32 pd=8.33 as=1.32 ps=8.33 w=8 l=0.5
X84 vdd.t244 a_n6972_8799.t57 CSoutput.t76 vdd.t243 sky130_fd_pr__pfet_01v8_lvt ad=1.32 pd=8.33 as=1.32 ps=8.33 w=8 l=0.5
X85 commonsourceibias.t11 commonsourceibias.t10 gnd.t317 gnd.t243 sky130_fd_pr__nfet_01v8 ad=1.155 pd=7.33 as=1.155 ps=7.33 w=7 l=1
X86 gnd.t277 commonsourceibias.t95 CSoutput.t110 gnd.t229 sky130_fd_pr__nfet_01v8 ad=1.155 pd=7.33 as=1.155 ps=7.33 w=7 l=1
X87 CSoutput.t54 a_n6972_8799.t58 vdd.t203 vdd.t163 sky130_fd_pr__pfet_01v8_lvt ad=1.32 pd=8.33 as=3.12 ps=16.78 w=8 l=0.5
X88 CSoutput.t174 a_n6972_8799.t59 vdd.t262 vdd.t82 sky130_fd_pr__pfet_01v8_lvt ad=1.32 pd=8.33 as=3.12 ps=16.78 w=8 l=0.5
X89 a_n3106_n452.t5 minus.t9 a_n2848_n452.t3 gnd.t16 sky130_fd_pr__nfet_01v8 ad=1.155 pd=7.33 as=1.155 ps=7.33 w=7 l=0.9
X90 a_n3106_n452.t29 plus.t11 a_n6972_8799.t29 gnd.t14 sky130_fd_pr__nfet_01v8 ad=2.73 pd=14.78 as=1.155 ps=7.33 w=7 l=0.9
X91 commonsourceibias.t9 commonsourceibias.t8 gnd.t316 gnd.t182 sky130_fd_pr__nfet_01v8 ad=1.155 pd=7.33 as=1.155 ps=7.33 w=7 l=1
X92 a_n6972_8799.t28 plus.t12 a_n3106_n452.t49 gnd.t40 sky130_fd_pr__nfet_01v8 ad=1.155 pd=7.33 as=1.155 ps=7.33 w=7 l=0.9
X93 gnd.t315 commonsourceibias.t96 CSoutput.t85 gnd.t289 sky130_fd_pr__nfet_01v8 ad=1.155 pd=7.33 as=1.155 ps=7.33 w=7 l=1
X94 vdd.t207 a_n6972_8799.t60 CSoutput.t57 vdd.t188 sky130_fd_pr__pfet_01v8_lvt ad=1.32 pd=8.33 as=1.32 ps=8.33 w=8 l=0.5
X95 CSoutput.t84 commonsourceibias.t97 gnd.t314 gnd.t286 sky130_fd_pr__nfet_01v8 ad=1.155 pd=7.33 as=1.155 ps=7.33 w=7 l=1
X96 CSoutput.t9 a_n6972_8799.t61 vdd.t138 vdd.t137 sky130_fd_pr__pfet_01v8_lvt ad=1.32 pd=8.33 as=1.32 ps=8.33 w=8 l=0.5
X97 gnd.t313 commonsourceibias.t6 commonsourceibias.t7 gnd.t289 sky130_fd_pr__nfet_01v8 ad=1.155 pd=7.33 as=1.155 ps=7.33 w=7 l=1
X98 a_n3106_n452.t1 diffpairibias.t17 gnd.t7 gnd.t6 sky130_fd_pr__nfet_01v8 ad=2.73 pd=14.78 as=2.73 ps=14.78 w=7 l=1
X99 CSoutput.t71 a_n6972_8799.t62 vdd.t238 vdd.t150 sky130_fd_pr__pfet_01v8_lvt ad=1.32 pd=8.33 as=1.32 ps=8.33 w=8 l=0.5
X100 CSoutput.t183 a_n1986_8322.t20 sky130_fd_pr__cap_mim_m3_1 l=12 w=12
X101 CSoutput.t14 a_n6972_8799.t63 vdd.t146 vdd.t137 sky130_fd_pr__pfet_01v8_lvt ad=1.32 pd=8.33 as=1.32 ps=8.33 w=8 l=0.5
X102 a_n3106_n452.t28 plus.t13 a_n6972_8799.t27 gnd.t33 sky130_fd_pr__nfet_01v8 ad=1.155 pd=7.33 as=1.155 ps=7.33 w=7 l=0.9
X103 vdd.t169 a_n6972_8799.t64 CSoutput.t29 vdd.t165 sky130_fd_pr__pfet_01v8_lvt ad=1.32 pd=8.33 as=1.32 ps=8.33 w=8 l=0.5
X104 gnd.t312 commonsourceibias.t4 commonsourceibias.t5 gnd.t278 sky130_fd_pr__nfet_01v8 ad=2.73 pd=14.78 as=1.155 ps=7.33 w=7 l=1
X105 commonsourceibias.t3 commonsourceibias.t2 gnd.t311 gnd.t192 sky130_fd_pr__nfet_01v8 ad=1.155 pd=7.33 as=1.155 ps=7.33 w=7 l=1
X106 a_n2848_n452.t8 a_n2848_n452.t7 a_n1808_13878.t14 vdd.t124 sky130_fd_pr__pfet_01v8_lvt ad=1.485 pd=9.33 as=1.485 ps=9.33 w=9 l=0.5
X107 CSoutput.t83 commonsourceibias.t98 gnd.t310 gnd.t198 sky130_fd_pr__nfet_01v8 ad=1.155 pd=7.33 as=1.155 ps=7.33 w=7 l=1
X108 vdd.t156 a_n6972_8799.t65 CSoutput.t21 vdd.t155 sky130_fd_pr__pfet_01v8_lvt ad=1.32 pd=8.33 as=1.32 ps=8.33 w=8 l=0.5
X109 a_n6972_8799.t9 a_n2848_n452.t52 a_n1986_8322.t19 vdd.t114 sky130_fd_pr__pfet_01v8_lvt ad=1.485 pd=9.33 as=1.485 ps=9.33 w=9 l=0.5
X110 vdd.t204 a_n6972_8799.t66 CSoutput.t55 vdd.t141 sky130_fd_pr__pfet_01v8_lvt ad=1.32 pd=8.33 as=1.32 ps=8.33 w=8 l=0.5
X111 a_n2848_n452.t28 a_n2848_n452.t27 a_n1808_13878.t13 vdd.t86 sky130_fd_pr__pfet_01v8_lvt ad=3.51 pd=18.78 as=1.485 ps=9.33 w=9 l=0.5
X112 CSoutput.t109 commonsourceibias.t99 gnd.t276 gnd.t271 sky130_fd_pr__nfet_01v8 ad=1.155 pd=7.33 as=1.155 ps=7.33 w=7 l=1
X113 a_n2848_n452.t46 minus.t10 a_n3106_n452.t54 gnd.t28 sky130_fd_pr__nfet_01v8 ad=1.155 pd=7.33 as=2.73 ps=14.78 w=7 l=0.9
X114 vdd.t174 a_n6972_8799.t67 CSoutput.t32 vdd.t165 sky130_fd_pr__pfet_01v8_lvt ad=1.32 pd=8.33 as=1.32 ps=8.33 w=8 l=0.5
X115 CSoutput.t82 commonsourceibias.t100 gnd.t309 gnd.t280 sky130_fd_pr__nfet_01v8 ad=1.155 pd=7.33 as=1.155 ps=7.33 w=7 l=1
X116 gnd.t308 commonsourceibias.t101 CSoutput.t81 gnd.t278 sky130_fd_pr__nfet_01v8 ad=2.73 pd=14.78 as=1.155 ps=7.33 w=7 l=1
X117 commonsourceibias.t1 commonsourceibias.t0 gnd.t307 gnd.t227 sky130_fd_pr__nfet_01v8 ad=1.155 pd=7.33 as=1.155 ps=7.33 w=7 l=1
X118 CSoutput.t80 commonsourceibias.t102 gnd.t306 gnd.t273 sky130_fd_pr__nfet_01v8 ad=1.155 pd=7.33 as=2.73 ps=14.78 w=7 l=1
X119 vdd.t251 a_n6972_8799.t68 CSoutput.t163 vdd.t178 sky130_fd_pr__pfet_01v8_lvt ad=1.32 pd=8.33 as=1.32 ps=8.33 w=8 l=0.5
X120 CSoutput.t79 commonsourceibias.t103 gnd.t305 gnd.t304 sky130_fd_pr__nfet_01v8 ad=1.155 pd=7.33 as=1.155 ps=7.33 w=7 l=1
X121 CSoutput.t30 a_n6972_8799.t69 vdd.t171 vdd.t170 sky130_fd_pr__pfet_01v8_lvt ad=1.32 pd=8.33 as=1.32 ps=8.33 w=8 l=0.5
X122 vdd.t66 vdd.t64 vdd.t65 vdd.t50 sky130_fd_pr__pfet_01v8_lvt ad=3.51 pd=18.78 as=0 ps=0 w=9 l=0.5
X123 vdd.t258 a_n6972_8799.t70 CSoutput.t170 vdd.t243 sky130_fd_pr__pfet_01v8_lvt ad=1.32 pd=8.33 as=1.32 ps=8.33 w=8 l=0.5
X124 a_n3106_n452.t2 diffpairibias.t18 gnd.t11 gnd.t10 sky130_fd_pr__nfet_01v8 ad=2.73 pd=14.78 as=2.73 ps=14.78 w=7 l=1
X125 CSoutput.t3 a_n6972_8799.t71 vdd.t83 vdd.t82 sky130_fd_pr__pfet_01v8_lvt ad=1.32 pd=8.33 as=3.12 ps=16.78 w=8 l=0.5
X126 vdd.t63 vdd.t60 vdd.t62 vdd.t61 sky130_fd_pr__pfet_01v8_lvt ad=3.51 pd=18.78 as=0 ps=0 w=9 l=0.5
X127 gnd.t303 commonsourceibias.t104 CSoutput.t78 gnd.t249 sky130_fd_pr__nfet_01v8 ad=1.155 pd=7.33 as=1.155 ps=7.33 w=7 l=1
X128 gnd.t166 gnd.t164 gnd.t165 gnd.t107 sky130_fd_pr__nfet_01v8 ad=2.73 pd=14.78 as=0 ps=0 w=7 l=0.9
X129 gnd.t163 gnd.t161 minus.t4 gnd.t162 sky130_fd_pr__nfet_01v8 ad=0.39 pd=2.78 as=0.165 ps=1.33 w=1 l=0.5
X130 commonsourceibias.t45 commonsourceibias.t44 gnd.t302 gnd.t280 sky130_fd_pr__nfet_01v8 ad=1.155 pd=7.33 as=1.155 ps=7.33 w=7 l=1
X131 vdd.t59 vdd.t56 vdd.t58 vdd.t57 sky130_fd_pr__pfet_01v8_lvt ad=3.51 pd=18.78 as=0 ps=0 w=9 l=0.5
X132 commonsourceibias.t43 commonsourceibias.t42 gnd.t301 gnd.t196 sky130_fd_pr__nfet_01v8 ad=1.155 pd=7.33 as=1.155 ps=7.33 w=7 l=1
X133 vdd.t55 vdd.t53 vdd.t54 vdd.t46 sky130_fd_pr__pfet_01v8_lvt ad=3.51 pd=18.78 as=0 ps=0 w=9 l=0.5
X134 vdd.t123 a_n2848_n452.t53 a_n1986_8322.t9 vdd.t122 sky130_fd_pr__pfet_01v8_lvt ad=1.485 pd=9.33 as=1.485 ps=9.33 w=9 l=0.5
X135 a_n1986_8322.t8 a_n2848_n452.t54 vdd.t121 vdd.t120 sky130_fd_pr__pfet_01v8_lvt ad=1.485 pd=9.33 as=1.485 ps=9.33 w=9 l=0.5
X136 CSoutput.t18 a_n6972_8799.t72 vdd.t152 vdd.t137 sky130_fd_pr__pfet_01v8_lvt ad=1.32 pd=8.33 as=1.32 ps=8.33 w=8 l=0.5
X137 gnd.t300 commonsourceibias.t40 commonsourceibias.t41 gnd.t217 sky130_fd_pr__nfet_01v8 ad=1.155 pd=7.33 as=1.155 ps=7.33 w=7 l=1
X138 gnd.t299 commonsourceibias.t105 CSoutput.t106 gnd.t180 sky130_fd_pr__nfet_01v8 ad=1.155 pd=7.33 as=1.155 ps=7.33 w=7 l=1
X139 gnd.t298 commonsourceibias.t38 commonsourceibias.t39 gnd.t297 sky130_fd_pr__nfet_01v8 ad=1.155 pd=7.33 as=1.155 ps=7.33 w=7 l=1
X140 vdd.t166 a_n6972_8799.t73 CSoutput.t27 vdd.t165 sky130_fd_pr__pfet_01v8_lvt ad=1.32 pd=8.33 as=1.32 ps=8.33 w=8 l=0.5
X141 outputibias.t1 outputibias.t0 gnd.t39 gnd.t38 sky130_fd_pr__nfet_01v8 ad=2.34 pd=12.78 as=2.34 ps=12.78 w=6 l=2
X142 gnd.t160 gnd.t158 plus.t3 gnd.t159 sky130_fd_pr__nfet_01v8 ad=0.39 pd=2.78 as=0.165 ps=1.33 w=1 l=0.5
X143 vdd.t119 a_n2848_n452.t55 a_n1808_13878.t6 vdd.t118 sky130_fd_pr__pfet_01v8_lvt ad=1.485 pd=9.33 as=1.485 ps=9.33 w=9 l=0.5
X144 a_n6972_8799.t26 plus.t14 a_n3106_n452.t46 gnd.t32 sky130_fd_pr__nfet_01v8 ad=1.155 pd=7.33 as=2.73 ps=14.78 w=7 l=0.9
X145 a_n2848_n452.t41 minus.t11 a_n3106_n452.t24 gnd.t68 sky130_fd_pr__nfet_01v8 ad=1.155 pd=7.33 as=1.155 ps=7.33 w=7 l=0.9
X146 commonsourceibias.t37 commonsourceibias.t36 gnd.t296 gnd.t233 sky130_fd_pr__nfet_01v8 ad=1.155 pd=7.33 as=1.155 ps=7.33 w=7 l=1
X147 gnd.t295 commonsourceibias.t106 CSoutput.t105 gnd.t236 sky130_fd_pr__nfet_01v8 ad=1.155 pd=7.33 as=1.155 ps=7.33 w=7 l=1
X148 gnd.t294 commonsourceibias.t107 CSoutput.t104 gnd.t293 sky130_fd_pr__nfet_01v8 ad=1.155 pd=7.33 as=1.155 ps=7.33 w=7 l=1
X149 gnd.t292 commonsourceibias.t108 CSoutput.t103 gnd.t247 sky130_fd_pr__nfet_01v8 ad=2.73 pd=14.78 as=1.155 ps=7.33 w=7 l=1
X150 a_n6972_8799.t25 plus.t15 a_n3106_n452.t34 gnd.t31 sky130_fd_pr__nfet_01v8 ad=1.155 pd=7.33 as=1.155 ps=7.33 w=7 l=0.9
X151 vdd.t52 vdd.t49 vdd.t51 vdd.t50 sky130_fd_pr__pfet_01v8_lvt ad=3.51 pd=18.78 as=0 ps=0 w=9 l=0.5
X152 diffpairibias.t11 diffpairibias.t10 gnd.t51 gnd.t50 sky130_fd_pr__nfet_01v8 ad=2.73 pd=14.78 as=2.73 ps=14.78 w=7 l=1
X153 a_n2848_n452.t32 minus.t12 a_n3106_n452.t10 gnd.t23 sky130_fd_pr__nfet_01v8 ad=1.155 pd=7.33 as=1.155 ps=7.33 w=7 l=0.9
X154 vdd.t210 CSoutput.t184 output.t14 gnd.t62 sky130_fd_pr__nfet_01v8_lvt ad=0.825 pd=5.33 as=0.825 ps=5.33 w=5 l=1
X155 vdd.t48 vdd.t45 vdd.t47 vdd.t46 sky130_fd_pr__pfet_01v8_lvt ad=3.51 pd=18.78 as=0 ps=0 w=9 l=0.5
X156 vdd.t246 a_n6972_8799.t74 CSoutput.t158 vdd.t141 sky130_fd_pr__pfet_01v8_lvt ad=1.32 pd=8.33 as=1.32 ps=8.33 w=8 l=0.5
X157 gnd.t291 commonsourceibias.t109 CSoutput.t102 gnd.t259 sky130_fd_pr__nfet_01v8 ad=1.155 pd=7.33 as=1.155 ps=7.33 w=7 l=1
X158 output.t3 outputibias.t8 gnd.t351 gnd.t350 sky130_fd_pr__nfet_01v8 ad=2.34 pd=12.78 as=2.34 ps=12.78 w=6 l=2
X159 vdd.t44 vdd.t41 vdd.t43 vdd.t42 sky130_fd_pr__pfet_01v8_lvt ad=3.51 pd=18.78 as=0 ps=0 w=9 l=0.5
X160 gnd.t290 commonsourceibias.t110 CSoutput.t101 gnd.t289 sky130_fd_pr__nfet_01v8 ad=1.155 pd=7.33 as=1.155 ps=7.33 w=7 l=1
X161 a_n1986_8322.t7 a_n2848_n452.t56 vdd.t117 vdd.t116 sky130_fd_pr__pfet_01v8_lvt ad=3.51 pd=18.78 as=1.485 ps=9.33 w=9 l=0.5
X162 a_n6972_8799.t8 a_n2848_n452.t57 a_n1986_8322.t12 vdd.t91 sky130_fd_pr__pfet_01v8_lvt ad=1.485 pd=9.33 as=1.485 ps=9.33 w=9 l=0.5
X163 CSoutput.t100 commonsourceibias.t111 gnd.t288 gnd.t286 sky130_fd_pr__nfet_01v8 ad=1.155 pd=7.33 as=1.155 ps=7.33 w=7 l=1
X164 commonsourceibias.t47 commonsourceibias.t46 gnd.t287 gnd.t286 sky130_fd_pr__nfet_01v8 ad=1.155 pd=7.33 as=1.155 ps=7.33 w=7 l=1
X165 vdd.t179 a_n6972_8799.t75 CSoutput.t35 vdd.t178 sky130_fd_pr__pfet_01v8_lvt ad=1.32 pd=8.33 as=1.32 ps=8.33 w=8 l=0.5
X166 a_n2848_n452.t26 a_n2848_n452.t25 a_n1808_13878.t12 vdd.t100 sky130_fd_pr__pfet_01v8_lvt ad=1.485 pd=9.33 as=1.485 ps=9.33 w=9 l=0.5
X167 a_n3106_n452.t21 minus.t13 a_n2848_n452.t39 gnd.t47 sky130_fd_pr__nfet_01v8 ad=1.155 pd=7.33 as=1.155 ps=7.33 w=7 l=0.9
X168 a_n6972_8799.t7 a_n2848_n452.t58 a_n1986_8322.t1 vdd.t115 sky130_fd_pr__pfet_01v8_lvt ad=1.485 pd=9.33 as=1.485 ps=9.33 w=9 l=0.5
X169 CSoutput.t162 a_n6972_8799.t76 vdd.t250 vdd.t170 sky130_fd_pr__pfet_01v8_lvt ad=1.32 pd=8.33 as=1.32 ps=8.33 w=8 l=0.5
X170 gnd.t285 commonsourceibias.t112 CSoutput.t116 gnd.t186 sky130_fd_pr__nfet_01v8 ad=1.155 pd=7.33 as=1.155 ps=7.33 w=7 l=1
X171 CSoutput.t115 commonsourceibias.t113 gnd.t284 gnd.t210 sky130_fd_pr__nfet_01v8 ad=1.155 pd=7.33 as=1.155 ps=7.33 w=7 l=1
X172 a_n1808_13878.t11 a_n2848_n452.t23 a_n2848_n452.t24 vdd.t114 sky130_fd_pr__pfet_01v8_lvt ad=1.485 pd=9.33 as=1.485 ps=9.33 w=9 l=0.5
X173 a_n2848_n452.t2 minus.t14 a_n3106_n452.t4 gnd.t8 sky130_fd_pr__nfet_01v8 ad=1.155 pd=7.33 as=1.155 ps=7.33 w=7 l=0.9
X174 a_n3106_n452.t47 plus.t16 a_n6972_8799.t24 gnd.t179 sky130_fd_pr__nfet_01v8 ad=1.155 pd=7.33 as=1.155 ps=7.33 w=7 l=0.9
X175 vdd.t113 a_n2848_n452.t59 a_n1986_8322.t6 vdd.t112 sky130_fd_pr__pfet_01v8_lvt ad=1.485 pd=9.33 as=3.51 ps=18.78 w=9 l=0.5
X176 CSoutput.t169 a_n6972_8799.t77 vdd.t257 vdd.t172 sky130_fd_pr__pfet_01v8_lvt ad=1.32 pd=8.33 as=1.32 ps=8.33 w=8 l=0.5
X177 vdd.t148 a_n6972_8799.t78 CSoutput.t15 vdd.t147 sky130_fd_pr__pfet_01v8_lvt ad=1.32 pd=8.33 as=1.32 ps=8.33 w=8 l=0.5
X178 CSoutput.t114 commonsourceibias.t114 gnd.t283 gnd.t271 sky130_fd_pr__nfet_01v8 ad=1.155 pd=7.33 as=1.155 ps=7.33 w=7 l=1
X179 a_n3106_n452.t20 diffpairibias.t19 gnd.t46 gnd.t45 sky130_fd_pr__nfet_01v8 ad=2.73 pd=14.78 as=2.73 ps=14.78 w=7 l=1
X180 gnd.t157 gnd.t154 gnd.t156 gnd.t155 sky130_fd_pr__nfet_01v8 ad=2.73 pd=14.78 as=0 ps=0 w=7 l=1
X181 a_n3106_n452.t15 diffpairibias.t20 gnd.t30 gnd.t29 sky130_fd_pr__nfet_01v8 ad=2.73 pd=14.78 as=2.73 ps=14.78 w=7 l=1
X182 a_n6972_8799.t23 plus.t17 a_n3106_n452.t37 gnd.t2 sky130_fd_pr__nfet_01v8 ad=1.155 pd=7.33 as=1.155 ps=7.33 w=7 l=0.9
X183 CSoutput.t56 a_n6972_8799.t79 vdd.t206 vdd.t205 sky130_fd_pr__pfet_01v8_lvt ad=1.32 pd=8.33 as=1.32 ps=8.33 w=8 l=0.5
X184 CSoutput.t113 commonsourceibias.t115 gnd.t282 gnd.t188 sky130_fd_pr__nfet_01v8 ad=1.155 pd=7.33 as=1.155 ps=7.33 w=7 l=1
X185 CSoutput.t112 commonsourceibias.t116 gnd.t281 gnd.t280 sky130_fd_pr__nfet_01v8 ad=1.155 pd=7.33 as=1.155 ps=7.33 w=7 l=1
X186 gnd.t279 commonsourceibias.t117 CSoutput.t111 gnd.t278 sky130_fd_pr__nfet_01v8 ad=2.73 pd=14.78 as=1.155 ps=7.33 w=7 l=1
X187 vdd.t159 a_n6972_8799.t80 CSoutput.t23 vdd.t158 sky130_fd_pr__pfet_01v8_lvt ad=3.12 pd=16.78 as=1.32 ps=8.33 w=8 l=0.5
X188 gnd.t275 commonsourceibias.t118 CSoutput.t108 gnd.t251 sky130_fd_pr__nfet_01v8 ad=1.155 pd=7.33 as=1.155 ps=7.33 w=7 l=1
X189 CSoutput.t107 commonsourceibias.t119 gnd.t274 gnd.t273 sky130_fd_pr__nfet_01v8 ad=1.155 pd=7.33 as=2.73 ps=14.78 w=7 l=1
X190 commonsourceibias.t79 commonsourceibias.t78 gnd.t272 gnd.t271 sky130_fd_pr__nfet_01v8 ad=1.155 pd=7.33 as=1.155 ps=7.33 w=7 l=1
X191 vdd.t211 CSoutput.t185 output.t13 gnd.t61 sky130_fd_pr__nfet_01v8_lvt ad=0.825 pd=5.33 as=0.825 ps=5.33 w=5 l=1
X192 CSoutput.t157 commonsourceibias.t120 gnd.t270 gnd.t225 sky130_fd_pr__nfet_01v8 ad=1.155 pd=7.33 as=1.155 ps=7.33 w=7 l=1
X193 gnd.t153 gnd.t151 gnd.t152 gnd.t78 sky130_fd_pr__nfet_01v8 ad=2.73 pd=14.78 as=0 ps=0 w=7 l=1
X194 a_n6972_8799.t22 plus.t18 a_n3106_n452.t45 gnd.t9 sky130_fd_pr__nfet_01v8 ad=1.155 pd=7.33 as=1.155 ps=7.33 w=7 l=0.9
X195 gnd.t150 gnd.t147 gnd.t149 gnd.t148 sky130_fd_pr__nfet_01v8 ad=2.34 pd=12.78 as=0 ps=0 w=6 l=2
X196 vdd.t140 a_n6972_8799.t81 CSoutput.t10 vdd.t139 sky130_fd_pr__pfet_01v8_lvt ad=1.32 pd=8.33 as=1.32 ps=8.33 w=8 l=0.5
X197 gnd.t269 commonsourceibias.t121 CSoutput.t156 gnd.t249 sky130_fd_pr__nfet_01v8 ad=1.155 pd=7.33 as=1.155 ps=7.33 w=7 l=1
X198 minus.t3 gnd.t144 gnd.t146 gnd.t145 sky130_fd_pr__nfet_01v8 ad=0.165 pd=1.33 as=0.165 ps=1.33 w=1 l=0.5
X199 gnd.t143 gnd.t141 gnd.t142 gnd.t111 sky130_fd_pr__nfet_01v8 ad=2.73 pd=14.78 as=0 ps=0 w=7 l=1
X200 CSoutput.t155 commonsourceibias.t122 gnd.t268 gnd.t243 sky130_fd_pr__nfet_01v8 ad=1.155 pd=7.33 as=1.155 ps=7.33 w=7 l=1
X201 diffpairibias.t9 diffpairibias.t8 gnd.t44 gnd.t43 sky130_fd_pr__nfet_01v8 ad=2.73 pd=14.78 as=2.73 ps=14.78 w=7 l=1
X202 a_n2848_n452.t43 minus.t15 a_n3106_n452.t26 gnd.t5 sky130_fd_pr__nfet_01v8 ad=1.155 pd=7.33 as=1.155 ps=7.33 w=7 l=0.9
X203 a_n3106_n452.t42 plus.t19 a_n6972_8799.t21 gnd.t17 sky130_fd_pr__nfet_01v8 ad=1.155 pd=7.33 as=1.155 ps=7.33 w=7 l=0.9
X204 CSoutput.t16 a_n6972_8799.t82 vdd.t149 vdd.t0 sky130_fd_pr__pfet_01v8_lvt ad=1.32 pd=8.33 as=1.32 ps=8.33 w=8 l=0.5
X205 CSoutput.t5 a_n6972_8799.t83 vdd.t131 vdd.t130 sky130_fd_pr__pfet_01v8_lvt ad=1.32 pd=8.33 as=1.32 ps=8.33 w=8 l=0.5
X206 gnd.t267 commonsourceibias.t123 CSoutput.t154 gnd.t240 sky130_fd_pr__nfet_01v8 ad=1.155 pd=7.33 as=1.155 ps=7.33 w=7 l=1
X207 CSoutput.t153 commonsourceibias.t124 gnd.t266 gnd.t184 sky130_fd_pr__nfet_01v8 ad=1.155 pd=7.33 as=2.73 ps=14.78 w=7 l=1
X208 a_n1808_13878.t5 a_n2848_n452.t60 vdd.t111 vdd.t110 sky130_fd_pr__pfet_01v8_lvt ad=1.485 pd=9.33 as=1.485 ps=9.33 w=9 l=0.5
X209 gnd.t265 commonsourceibias.t76 commonsourceibias.t77 gnd.t208 sky130_fd_pr__nfet_01v8 ad=1.155 pd=7.33 as=1.155 ps=7.33 w=7 l=1
X210 gnd.t264 commonsourceibias.t125 CSoutput.t152 gnd.t236 sky130_fd_pr__nfet_01v8 ad=1.155 pd=7.33 as=1.155 ps=7.33 w=7 l=1
X211 gnd.t263 commonsourceibias.t126 CSoutput.t151 gnd.t247 sky130_fd_pr__nfet_01v8 ad=2.73 pd=14.78 as=1.155 ps=7.33 w=7 l=1
X212 vdd.t109 a_n2848_n452.t61 a_n1808_13878.t4 vdd.t108 sky130_fd_pr__pfet_01v8_lvt ad=1.485 pd=9.33 as=1.485 ps=9.33 w=9 l=0.5
X213 vdd.t40 vdd.t38 vdd.t39 vdd.t22 sky130_fd_pr__pfet_01v8_lvt ad=3.12 pd=16.78 as=0 ps=0 w=8 l=0.5
X214 CSoutput.t31 a_n6972_8799.t84 vdd.t173 vdd.t172 sky130_fd_pr__pfet_01v8_lvt ad=1.32 pd=8.33 as=1.32 ps=8.33 w=8 l=0.5
X215 vdd.t157 a_n6972_8799.t85 CSoutput.t22 vdd.t147 sky130_fd_pr__pfet_01v8_lvt ad=1.32 pd=8.33 as=1.32 ps=8.33 w=8 l=0.5
X216 a_n3106_n452.t3 minus.t16 a_n2848_n452.t1 gnd.t15 sky130_fd_pr__nfet_01v8 ad=1.155 pd=7.33 as=1.155 ps=7.33 w=7 l=0.9
X217 gnd.t262 commonsourceibias.t127 CSoutput.t150 gnd.t259 sky130_fd_pr__nfet_01v8 ad=1.155 pd=7.33 as=1.155 ps=7.33 w=7 l=1
X218 diffpairibias.t7 diffpairibias.t6 gnd.t347 gnd.t346 sky130_fd_pr__nfet_01v8 ad=2.73 pd=14.78 as=2.73 ps=14.78 w=7 l=1
X219 CSoutput.t149 commonsourceibias.t128 gnd.t261 gnd.t233 sky130_fd_pr__nfet_01v8 ad=1.155 pd=7.33 as=1.155 ps=7.33 w=7 l=1
X220 vdd.t217 CSoutput.t186 output.t12 gnd.t60 sky130_fd_pr__nfet_01v8_lvt ad=0.825 pd=5.33 as=0.825 ps=5.33 w=5 l=1
X221 output.t11 CSoutput.t187 vdd.t214 gnd.t59 sky130_fd_pr__nfet_01v8_lvt ad=0.825 pd=5.33 as=0.825 ps=5.33 w=5 l=1
X222 CSoutput.t175 a_n6972_8799.t86 vdd.t263 vdd.t205 sky130_fd_pr__pfet_01v8_lvt ad=1.32 pd=8.33 as=1.32 ps=8.33 w=8 l=0.5
X223 gnd.t260 commonsourceibias.t74 commonsourceibias.t75 gnd.t259 sky130_fd_pr__nfet_01v8 ad=1.155 pd=7.33 as=1.155 ps=7.33 w=7 l=1
X224 gnd.t140 gnd.t138 gnd.t139 gnd.t111 sky130_fd_pr__nfet_01v8 ad=2.73 pd=14.78 as=0 ps=0 w=7 l=1
X225 a_n3106_n452.t8 minus.t17 a_n2848_n452.t6 gnd.t19 sky130_fd_pr__nfet_01v8 ad=1.155 pd=7.33 as=1.155 ps=7.33 w=7 l=0.9
X226 CSoutput.t148 commonsourceibias.t129 gnd.t258 gnd.t182 sky130_fd_pr__nfet_01v8 ad=1.155 pd=7.33 as=1.155 ps=7.33 w=7 l=1
X227 vdd.t175 a_n6972_8799.t87 CSoutput.t33 vdd.t158 sky130_fd_pr__pfet_01v8_lvt ad=3.12 pd=16.78 as=1.32 ps=8.33 w=8 l=0.5
X228 a_n3106_n452.t32 plus.t20 a_n6972_8799.t20 gnd.t18 sky130_fd_pr__nfet_01v8 ad=2.73 pd=14.78 as=1.155 ps=7.33 w=7 l=0.9
X229 a_n3106_n452.t25 minus.t18 a_n2848_n452.t42 gnd.t3 sky130_fd_pr__nfet_01v8 ad=1.155 pd=7.33 as=1.155 ps=7.33 w=7 l=0.9
X230 gnd.t257 commonsourceibias.t130 CSoutput.t141 gnd.t186 sky130_fd_pr__nfet_01v8 ad=1.155 pd=7.33 as=1.155 ps=7.33 w=7 l=1
X231 CSoutput.t73 a_n6972_8799.t88 vdd.t240 vdd.t134 sky130_fd_pr__pfet_01v8_lvt ad=1.32 pd=8.33 as=1.32 ps=8.33 w=8 l=0.5
X232 a_n1986_8322.t11 a_n2848_n452.t62 a_n6972_8799.t6 vdd.t107 sky130_fd_pr__pfet_01v8_lvt ad=1.485 pd=9.33 as=1.485 ps=9.33 w=9 l=0.5
X233 gnd.t137 gnd.t134 gnd.t136 gnd.t135 sky130_fd_pr__nfet_01v8_lvt ad=1.95 pd=10.78 as=0 ps=0 w=5 l=1
X234 CSoutput.t140 commonsourceibias.t131 gnd.t256 gnd.t210 sky130_fd_pr__nfet_01v8 ad=1.155 pd=7.33 as=1.155 ps=7.33 w=7 l=1
X235 vdd.t239 a_n6972_8799.t89 CSoutput.t72 vdd.t236 sky130_fd_pr__pfet_01v8_lvt ad=1.32 pd=8.33 as=1.32 ps=8.33 w=8 l=0.5
X236 CSoutput.t34 a_n6972_8799.t90 vdd.t177 vdd.t176 sky130_fd_pr__pfet_01v8_lvt ad=1.32 pd=8.33 as=1.32 ps=8.33 w=8 l=0.5
X237 vdd.t247 a_n6972_8799.t91 CSoutput.t159 vdd.t243 sky130_fd_pr__pfet_01v8_lvt ad=1.32 pd=8.33 as=1.32 ps=8.33 w=8 l=0.5
X238 vdd.t106 a_n2848_n452.t63 a_n1986_8322.t5 vdd.t105 sky130_fd_pr__pfet_01v8_lvt ad=1.485 pd=9.33 as=3.51 ps=18.78 w=9 l=0.5
X239 vdd.t253 a_n6972_8799.t92 CSoutput.t165 vdd.t139 sky130_fd_pr__pfet_01v8_lvt ad=1.32 pd=8.33 as=1.32 ps=8.33 w=8 l=0.5
X240 gnd.t255 commonsourceibias.t68 commonsourceibias.t69 gnd.t219 sky130_fd_pr__nfet_01v8 ad=1.155 pd=7.33 as=1.155 ps=7.33 w=7 l=1
X241 gnd.t133 gnd.t130 gnd.t132 gnd.t131 sky130_fd_pr__nfet_01v8 ad=2.73 pd=14.78 as=0 ps=0 w=7 l=1
X242 a_n1808_13878.t3 a_n2848_n452.t64 vdd.t104 vdd.t103 sky130_fd_pr__pfet_01v8_lvt ad=3.51 pd=18.78 as=1.485 ps=9.33 w=9 l=0.5
X243 a_n3106_n452.t19 diffpairibias.t21 gnd.t42 gnd.t41 sky130_fd_pr__nfet_01v8 ad=2.73 pd=14.78 as=2.73 ps=14.78 w=7 l=1
X244 minus.t2 gnd.t127 gnd.t129 gnd.t128 sky130_fd_pr__nfet_01v8 ad=0.165 pd=1.33 as=0.165 ps=1.33 w=1 l=0.5