* NGSPICE file created from opamp.ext - technology: sky130A

.subckt opamp output vdd plus minus commonsourceibias outputibias diffpairibias gnd CSoutput
Cload output gnd 0.0p
X0 a_n1986_8322.t17 a_n1986_13878.t40 vdd.t268 vdd.t267 sky130_fd_pr__pfet_01v8_lvt ad=1.485 pd=9.33 as=1.485 ps=9.33 w=9 l=0.5
X1 gnd.t201 gnd.t198 gnd.t200 gnd.t199 sky130_fd_pr__nfet_01v8_lvt ad=1.95 pd=10.78 as=0 ps=0 w=5 l=1
X2 a_n1808_13878.t19 a_n1986_13878.t14 a_n1986_13878.t15 vdd.t264 sky130_fd_pr__pfet_01v8_lvt ad=1.485 pd=9.33 as=3.51 ps=18.78 w=9 l=0.5
X3 outputibias.t7 outputibias.t6 gnd.t322 gnd.t321 sky130_fd_pr__nfet_01v8 ad=2.34 pd=12.78 as=2.34 ps=12.78 w=6 l=2
X4 vdd.t111 a_n7636_8799.t28 CSoutput.t154 vdd.t78 sky130_fd_pr__pfet_01v8_lvt ad=1.32 pd=8.33 as=1.32 ps=8.33 w=8 l=0.5
X5 a_n3827_n3924.t36 diffpairibias.t20 gnd.t232 gnd.t231 sky130_fd_pr__nfet_01v8 ad=2.73 pd=14.78 as=2.73 ps=14.78 w=7 l=1
X6 gnd.t336 commonsourceibias.t80 CSoutput.t191 gnd.t20 sky130_fd_pr__nfet_01v8 ad=1.155 pd=7.33 as=1.155 ps=7.33 w=7 l=1
X7 gnd.t197 gnd.t195 gnd.t196 gnd.t171 sky130_fd_pr__nfet_01v8 ad=2.73 pd=14.78 as=0 ps=0 w=7 l=1
X8 commonsourceibias.t79 commonsourceibias.t78 gnd.t308 gnd.t24 sky130_fd_pr__nfet_01v8 ad=1.155 pd=7.33 as=2.73 ps=14.78 w=7 l=1
X9 commonsourceibias.t77 commonsourceibias.t76 gnd.t286 gnd.t265 sky130_fd_pr__nfet_01v8 ad=1.155 pd=7.33 as=1.155 ps=7.33 w=7 l=1
X10 a_n1986_13878.t19 a_n1986_13878.t18 a_n1808_13878.t18 vdd.t248 sky130_fd_pr__pfet_01v8_lvt ad=1.485 pd=9.33 as=1.485 ps=9.33 w=9 l=0.5
X11 vdd.t217 vdd.t215 vdd.t216 vdd.t193 sky130_fd_pr__pfet_01v8_lvt ad=3.51 pd=18.78 as=0 ps=0 w=9 l=0.5
X12 gnd.t194 gnd.t192 gnd.t193 gnd.t171 sky130_fd_pr__nfet_01v8 ad=2.73 pd=14.78 as=0 ps=0 w=7 l=1
X13 CSoutput.t153 a_n7636_8799.t29 vdd.t131 vdd.t67 sky130_fd_pr__pfet_01v8_lvt ad=1.32 pd=8.33 as=1.32 ps=8.33 w=8 l=0.5
X14 a_n1808_13878.t17 a_n1986_13878.t30 a_n1986_13878.t31 vdd.t254 sky130_fd_pr__pfet_01v8_lvt ad=1.485 pd=9.33 as=1.485 ps=9.33 w=9 l=0.5
X15 a_n1808_13878.t7 a_n1986_13878.t41 vdd.t266 vdd.t265 sky130_fd_pr__pfet_01v8_lvt ad=1.485 pd=9.33 as=1.485 ps=9.33 w=9 l=0.5
X16 vdd.t113 a_n7636_8799.t30 CSoutput.t152 vdd.t5 sky130_fd_pr__pfet_01v8_lvt ad=1.32 pd=8.33 as=1.32 ps=8.33 w=8 l=0.5
X17 CSoutput.t151 a_n7636_8799.t31 vdd.t26 vdd.t25 sky130_fd_pr__pfet_01v8_lvt ad=1.32 pd=8.33 as=1.32 ps=8.33 w=8 l=0.5
X18 gnd.t191 gnd.t189 gnd.t190 gnd.t117 sky130_fd_pr__nfet_01v8 ad=2.73 pd=14.78 as=0 ps=0 w=7 l=1
X19 CSoutput.t192 commonsourceibias.t81 gnd.t337 gnd.t64 sky130_fd_pr__nfet_01v8 ad=1.155 pd=7.33 as=1.155 ps=7.33 w=7 l=1
X20 gnd.t91 commonsourceibias.t74 commonsourceibias.t75 gnd.t22 sky130_fd_pr__nfet_01v8 ad=2.73 pd=14.78 as=1.155 ps=7.33 w=7 l=1
X21 CSoutput.t150 a_n7636_8799.t32 vdd.t43 vdd.t42 sky130_fd_pr__pfet_01v8_lvt ad=1.32 pd=8.33 as=1.32 ps=8.33 w=8 l=0.5
X22 CSoutput.t15 commonsourceibias.t82 gnd.t46 gnd.t30 sky130_fd_pr__nfet_01v8 ad=1.155 pd=7.33 as=1.155 ps=7.33 w=7 l=1
X23 a_n7636_8799.t7 plus.t5 a_n3827_n3924.t17 gnd.t217 sky130_fd_pr__nfet_01v8 ad=1.155 pd=7.33 as=1.155 ps=7.33 w=7 l=0.5
X24 gnd.t188 gnd.t186 gnd.t187 gnd.t117 sky130_fd_pr__nfet_01v8 ad=2.73 pd=14.78 as=0 ps=0 w=7 l=1
X25 vdd.t214 vdd.t212 vdd.t213 vdd.t165 sky130_fd_pr__pfet_01v8_lvt ad=3.12 pd=16.78 as=0 ps=0 w=8 l=0.5
X26 commonsourceibias.t73 commonsourceibias.t72 gnd.t309 gnd.t30 sky130_fd_pr__nfet_01v8 ad=1.155 pd=7.33 as=1.155 ps=7.33 w=7 l=1
X27 a_n1986_8322.t8 a_n1986_13878.t42 a_n7636_8799.t26 vdd.t263 sky130_fd_pr__pfet_01v8_lvt ad=1.485 pd=9.33 as=1.485 ps=9.33 w=9 l=0.5
X28 CSoutput.t16 commonsourceibias.t83 gnd.t48 gnd.t47 sky130_fd_pr__nfet_01v8 ad=1.155 pd=7.33 as=1.155 ps=7.33 w=7 l=1
X29 CSoutput.t149 a_n7636_8799.t33 vdd.t48 vdd.t28 sky130_fd_pr__pfet_01v8_lvt ad=1.32 pd=8.33 as=1.32 ps=8.33 w=8 l=0.5
X30 output.t19 CSoutput.t200 vdd.t140 gnd.t313 sky130_fd_pr__nfet_01v8_lvt ad=0.825 pd=5.33 as=0.825 ps=5.33 w=5 l=1
X31 vdd.t47 a_n7636_8799.t34 CSoutput.t148 vdd.t46 sky130_fd_pr__pfet_01v8_lvt ad=1.32 pd=8.33 as=1.32 ps=8.33 w=8 l=0.5
X32 a_n7636_8799.t3 plus.t6 a_n3827_n3924.t6 gnd.t89 sky130_fd_pr__nfet_01v8 ad=1.155 pd=7.33 as=1.155 ps=7.33 w=7 l=0.5
X33 commonsourceibias.t71 commonsourceibias.t70 gnd.t288 gnd.t287 sky130_fd_pr__nfet_01v8 ad=1.155 pd=7.33 as=1.155 ps=7.33 w=7 l=1
X34 vdd.t37 a_n7636_8799.t35 CSoutput.t147 vdd.t36 sky130_fd_pr__pfet_01v8_lvt ad=1.32 pd=8.33 as=1.32 ps=8.33 w=8 l=0.5
X35 vdd.t12 a_n7636_8799.t36 CSoutput.t146 vdd.t11 sky130_fd_pr__pfet_01v8_lvt ad=1.32 pd=8.33 as=1.32 ps=8.33 w=8 l=0.5
X36 CSoutput.t145 a_n7636_8799.t37 vdd.t139 vdd.t32 sky130_fd_pr__pfet_01v8_lvt ad=1.32 pd=8.33 as=1.32 ps=8.33 w=8 l=0.5
X37 a_n7636_8799.t25 a_n1986_13878.t43 a_n1986_8322.t2 vdd.t264 sky130_fd_pr__pfet_01v8_lvt ad=1.485 pd=9.33 as=3.51 ps=18.78 w=9 l=0.5
X38 vdd.t132 a_n7636_8799.t38 CSoutput.t144 vdd.t103 sky130_fd_pr__pfet_01v8_lvt ad=1.32 pd=8.33 as=1.32 ps=8.33 w=8 l=0.5
X39 a_n3827_n3924.t35 diffpairibias.t21 gnd.t341 gnd.t340 sky130_fd_pr__nfet_01v8 ad=2.73 pd=14.78 as=2.73 ps=14.78 w=7 l=1
X40 CSoutput.t3 commonsourceibias.t84 gnd.t13 gnd.t12 sky130_fd_pr__nfet_01v8 ad=1.155 pd=7.33 as=1.155 ps=7.33 w=7 l=1
X41 a_n3827_n3924.t1 minus.t5 a_n1986_13878.t0 gnd.t3 sky130_fd_pr__nfet_01v8 ad=1.155 pd=7.33 as=1.155 ps=7.33 w=7 l=0.5
X42 CSoutput.t143 a_n7636_8799.t39 vdd.t77 vdd.t13 sky130_fd_pr__pfet_01v8_lvt ad=1.32 pd=8.33 as=3.12 ps=16.78 w=8 l=0.5
X43 gnd.t185 gnd.t183 plus.t4 gnd.t184 sky130_fd_pr__nfet_01v8 ad=0.165 pd=1.33 as=0.39 ps=2.78 w=1 l=0.5
X44 gnd.t14 commonsourceibias.t85 CSoutput.t4 gnd.t6 sky130_fd_pr__nfet_01v8 ad=1.155 pd=7.33 as=1.155 ps=7.33 w=7 l=1
X45 a_n3827_n3924.t19 plus.t7 a_n7636_8799.t9 gnd.t222 sky130_fd_pr__nfet_01v8 ad=2.73 pd=14.78 as=1.155 ps=7.33 w=7 l=0.5
X46 gnd.t179 gnd.t177 gnd.t178 gnd.t113 sky130_fd_pr__nfet_01v8 ad=2.73 pd=14.78 as=0 ps=0 w=7 l=1
X47 gnd.t93 commonsourceibias.t68 commonsourceibias.t69 gnd.t92 sky130_fd_pr__nfet_01v8 ad=1.155 pd=7.33 as=1.155 ps=7.33 w=7 l=1
X48 a_n1986_13878.t7 minus.t6 a_n3827_n3924.t14 gnd.t229 sky130_fd_pr__nfet_01v8 ad=1.155 pd=7.33 as=2.73 ps=14.78 w=7 l=0.5
X49 a_n3827_n3924.t25 minus.t7 a_n1986_13878.t11 gnd.t90 sky130_fd_pr__nfet_01v8 ad=1.155 pd=7.33 as=1.155 ps=7.33 w=7 l=0.5
X50 commonsourceibias.t67 commonsourceibias.t66 gnd.t310 gnd.t36 sky130_fd_pr__nfet_01v8 ad=1.155 pd=7.33 as=1.155 ps=7.33 w=7 l=1
X51 vdd.t211 vdd.t209 vdd.t210 vdd.t143 sky130_fd_pr__pfet_01v8_lvt ad=3.12 pd=16.78 as=0 ps=0 w=8 l=0.5
X52 CSoutput.t142 a_n7636_8799.t40 vdd.t102 vdd.t67 sky130_fd_pr__pfet_01v8_lvt ad=1.32 pd=8.33 as=1.32 ps=8.33 w=8 l=0.5
X53 gnd.t74 commonsourceibias.t86 CSoutput.t27 gnd.t73 sky130_fd_pr__nfet_01v8 ad=1.155 pd=7.33 as=1.155 ps=7.33 w=7 l=1
X54 CSoutput.t141 a_n7636_8799.t41 vdd.t65 vdd.t64 sky130_fd_pr__pfet_01v8_lvt ad=1.32 pd=8.33 as=1.32 ps=8.33 w=8 l=0.5
X55 vdd.t219 CSoutput.t201 output.t18 gnd.t317 sky130_fd_pr__nfet_01v8_lvt ad=0.825 pd=5.33 as=0.825 ps=5.33 w=5 l=1
X56 gnd.t76 commonsourceibias.t87 CSoutput.t28 gnd.t75 sky130_fd_pr__nfet_01v8 ad=1.155 pd=7.33 as=1.155 ps=7.33 w=7 l=1
X57 gnd.t345 commonsourceibias.t88 CSoutput.t196 gnd.t246 sky130_fd_pr__nfet_01v8 ad=1.155 pd=7.33 as=1.155 ps=7.33 w=7 l=1
X58 a_n3827_n3924.t22 minus.t8 a_n1986_13878.t10 gnd.t263 sky130_fd_pr__nfet_01v8 ad=1.155 pd=7.33 as=1.155 ps=7.33 w=7 l=0.5
X59 CSoutput.t140 a_n7636_8799.t42 vdd.t108 vdd.t42 sky130_fd_pr__pfet_01v8_lvt ad=1.32 pd=8.33 as=1.32 ps=8.33 w=8 l=0.5
X60 gnd.t94 commonsourceibias.t64 commonsourceibias.t65 gnd.t6 sky130_fd_pr__nfet_01v8 ad=1.155 pd=7.33 as=1.155 ps=7.33 w=7 l=1
X61 diffpairibias.t19 diffpairibias.t18 gnd.t290 gnd.t289 sky130_fd_pr__nfet_01v8 ad=2.73 pd=14.78 as=2.73 ps=14.78 w=7 l=1
X62 a_n1808_13878.t16 a_n1986_13878.t22 a_n1986_13878.t23 vdd.t228 sky130_fd_pr__pfet_01v8_lvt ad=1.485 pd=9.33 as=3.51 ps=18.78 w=9 l=0.5
X63 commonsourceibias.t63 commonsourceibias.t62 gnd.t63 gnd.t62 sky130_fd_pr__nfet_01v8 ad=1.155 pd=7.33 as=1.155 ps=7.33 w=7 l=1
X64 vdd.t130 a_n7636_8799.t43 CSoutput.t139 vdd.t103 sky130_fd_pr__pfet_01v8_lvt ad=1.32 pd=8.33 as=1.32 ps=8.33 w=8 l=0.5
X65 vdd.t208 vdd.t206 vdd.t207 vdd.t165 sky130_fd_pr__pfet_01v8_lvt ad=3.12 pd=16.78 as=0 ps=0 w=8 l=0.5
X66 output.t17 CSoutput.t202 vdd.t220 gnd.t318 sky130_fd_pr__nfet_01v8_lvt ad=1.95 pd=10.78 as=0.825 ps=5.33 w=5 l=1
X67 CSoutput.t138 a_n7636_8799.t44 vdd.t107 vdd.t58 sky130_fd_pr__pfet_01v8_lvt ad=1.32 pd=8.33 as=1.32 ps=8.33 w=8 l=0.5
X68 a_n1986_13878.t27 a_n1986_13878.t26 a_n1808_13878.t15 vdd.t240 sky130_fd_pr__pfet_01v8_lvt ad=1.485 pd=9.33 as=1.485 ps=9.33 w=9 l=0.5
X69 CSoutput.t137 a_n7636_8799.t45 vdd.t272 vdd.t28 sky130_fd_pr__pfet_01v8_lvt ad=1.32 pd=8.33 as=1.32 ps=8.33 w=8 l=0.5
X70 vdd.t205 vdd.t203 vdd.t204 vdd.t178 sky130_fd_pr__pfet_01v8_lvt ad=3.51 pd=18.78 as=0 ps=0 w=9 l=0.5
X71 commonsourceibias.t61 commonsourceibias.t60 gnd.t297 gnd.t59 sky130_fd_pr__nfet_01v8 ad=1.155 pd=7.33 as=1.155 ps=7.33 w=7 l=1
X72 gnd.t182 gnd.t180 plus.t3 gnd.t181 sky130_fd_pr__nfet_01v8 ad=0.39 pd=2.78 as=0.165 ps=1.33 w=1 l=0.5
X73 minus.t4 gnd.t174 gnd.t176 gnd.t175 sky130_fd_pr__nfet_01v8 ad=0.165 pd=1.33 as=0.165 ps=1.33 w=1 l=0.5
X74 vdd.t122 a_n7636_8799.t46 CSoutput.t136 vdd.t46 sky130_fd_pr__pfet_01v8_lvt ad=1.32 pd=8.33 as=1.32 ps=8.33 w=8 l=0.5
X75 gnd.t173 gnd.t170 gnd.t172 gnd.t171 sky130_fd_pr__nfet_01v8 ad=2.73 pd=14.78 as=0 ps=0 w=7 l=1
X76 diffpairibias.t17 diffpairibias.t16 gnd.t84 gnd.t83 sky130_fd_pr__nfet_01v8 ad=2.73 pd=14.78 as=2.73 ps=14.78 w=7 l=1
X77 gnd.t206 commonsourceibias.t58 commonsourceibias.t59 gnd.t205 sky130_fd_pr__nfet_01v8 ad=1.155 pd=7.33 as=1.155 ps=7.33 w=7 l=1
X78 CSoutput.t197 commonsourceibias.t89 gnd.t346 gnd.t64 sky130_fd_pr__nfet_01v8 ad=1.155 pd=7.33 as=1.155 ps=7.33 w=7 l=1
X79 CSoutput.t135 a_n7636_8799.t47 vdd.t123 vdd.t84 sky130_fd_pr__pfet_01v8_lvt ad=1.32 pd=8.33 as=1.32 ps=8.33 w=8 l=0.5
X80 vdd.t88 a_n7636_8799.t48 CSoutput.t134 vdd.t87 sky130_fd_pr__pfet_01v8_lvt ad=1.32 pd=8.33 as=1.32 ps=8.33 w=8 l=0.5
X81 vdd.t291 a_n7636_8799.t49 CSoutput.t133 vdd.t11 sky130_fd_pr__pfet_01v8_lvt ad=1.32 pd=8.33 as=1.32 ps=8.33 w=8 l=0.5
X82 CSoutput.t11 commonsourceibias.t90 gnd.t35 gnd.t34 sky130_fd_pr__nfet_01v8 ad=1.155 pd=7.33 as=1.155 ps=7.33 w=7 l=1
X83 vdd.t104 a_n7636_8799.t50 CSoutput.t132 vdd.t103 sky130_fd_pr__pfet_01v8_lvt ad=1.32 pd=8.33 as=1.32 ps=8.33 w=8 l=0.5
X84 vdd.t286 a_n7636_8799.t51 CSoutput.t131 vdd.t82 sky130_fd_pr__pfet_01v8_lvt ad=1.32 pd=8.33 as=1.32 ps=8.33 w=8 l=0.5
X85 CSoutput.t130 a_n7636_8799.t52 vdd.t14 vdd.t13 sky130_fd_pr__pfet_01v8_lvt ad=1.32 pd=8.33 as=3.12 ps=16.78 w=8 l=0.5
X86 CSoutput.t129 a_n7636_8799.t53 vdd.t269 vdd.t49 sky130_fd_pr__pfet_01v8_lvt ad=1.32 pd=8.33 as=1.32 ps=8.33 w=8 l=0.5
X87 gnd.t247 commonsourceibias.t56 commonsourceibias.t57 gnd.t246 sky130_fd_pr__nfet_01v8 ad=1.155 pd=7.33 as=1.155 ps=7.33 w=7 l=1
X88 CSoutput.t12 commonsourceibias.t91 gnd.t37 gnd.t36 sky130_fd_pr__nfet_01v8 ad=1.155 pd=7.33 as=1.155 ps=7.33 w=7 l=1
X89 CSoutput.t170 commonsourceibias.t92 gnd.t278 gnd.t44 sky130_fd_pr__nfet_01v8 ad=1.155 pd=7.33 as=1.155 ps=7.33 w=7 l=1
X90 output.t16 CSoutput.t203 vdd.t221 gnd.t319 sky130_fd_pr__nfet_01v8_lvt ad=0.825 pd=5.33 as=0.825 ps=5.33 w=5 l=1
X91 vdd.t222 CSoutput.t204 output.t15 gnd.t320 sky130_fd_pr__nfet_01v8_lvt ad=0.825 pd=5.33 as=1.95 ps=10.78 w=5 l=1
X92 a_n7636_8799.t14 plus.t8 a_n3827_n3924.t26 gnd.t296 sky130_fd_pr__nfet_01v8 ad=1.155 pd=7.33 as=1.155 ps=7.33 w=7 l=0.5
X93 CSoutput.t171 commonsourceibias.t93 gnd.t279 gnd.t10 sky130_fd_pr__nfet_01v8 ad=1.155 pd=7.33 as=1.155 ps=7.33 w=7 l=1
X94 vdd.t54 a_n7636_8799.t54 CSoutput.t128 vdd.t53 sky130_fd_pr__pfet_01v8_lvt ad=1.32 pd=8.33 as=1.32 ps=8.33 w=8 l=0.5
X95 CSoutput.t33 commonsourceibias.t94 gnd.t219 gnd.t47 sky130_fd_pr__nfet_01v8 ad=1.155 pd=7.33 as=1.155 ps=7.33 w=7 l=1
X96 CSoutput.t127 a_n7636_8799.t55 vdd.t63 vdd.t38 sky130_fd_pr__pfet_01v8_lvt ad=1.32 pd=8.33 as=1.32 ps=8.33 w=8 l=0.5
X97 a_n3827_n3924.t34 diffpairibias.t22 gnd.t348 gnd.t347 sky130_fd_pr__nfet_01v8 ad=2.73 pd=14.78 as=2.73 ps=14.78 w=7 l=1
X98 CSoutput.t126 a_n7636_8799.t56 vdd.t89 vdd.t64 sky130_fd_pr__pfet_01v8_lvt ad=1.32 pd=8.33 as=1.32 ps=8.33 w=8 l=0.5
X99 CSoutput.t125 a_n7636_8799.t57 vdd.t45 vdd.t44 sky130_fd_pr__pfet_01v8_lvt ad=1.32 pd=8.33 as=3.12 ps=16.78 w=8 l=0.5
X100 CSoutput.t124 a_n7636_8799.t58 vdd.t280 vdd.t38 sky130_fd_pr__pfet_01v8_lvt ad=1.32 pd=8.33 as=1.32 ps=8.33 w=8 l=0.5
X101 a_n3827_n3924.t40 minus.t9 a_n1986_13878.t39 gnd.t293 sky130_fd_pr__nfet_01v8 ad=1.155 pd=7.33 as=1.155 ps=7.33 w=7 l=0.5
X102 vdd.t121 a_n7636_8799.t59 CSoutput.t123 vdd.t40 sky130_fd_pr__pfet_01v8_lvt ad=1.32 pd=8.33 as=1.32 ps=8.33 w=8 l=0.5
X103 a_n1986_13878.t9 minus.t10 a_n3827_n3924.t16 gnd.t226 sky130_fd_pr__nfet_01v8 ad=1.155 pd=7.33 as=1.155 ps=7.33 w=7 l=0.5
X104 gnd.t208 commonsourceibias.t54 commonsourceibias.t55 gnd.t207 sky130_fd_pr__nfet_01v8 ad=1.155 pd=7.33 as=1.155 ps=7.33 w=7 l=1
X105 gnd.t248 commonsourceibias.t52 commonsourceibias.t53 gnd.t70 sky130_fd_pr__nfet_01v8 ad=1.155 pd=7.33 as=1.155 ps=7.33 w=7 l=1
X106 a_n3827_n3924.t41 plus.t9 a_n7636_8799.t27 gnd.t230 sky130_fd_pr__nfet_01v8 ad=1.155 pd=7.33 as=1.155 ps=7.33 w=7 l=0.5
X107 gnd.t298 commonsourceibias.t50 commonsourceibias.t51 gnd.t202 sky130_fd_pr__nfet_01v8 ad=1.155 pd=7.33 as=1.155 ps=7.33 w=7 l=1
X108 vdd.t90 a_n7636_8799.t60 CSoutput.t122 vdd.t60 sky130_fd_pr__pfet_01v8_lvt ad=1.32 pd=8.33 as=1.32 ps=8.33 w=8 l=0.5
X109 output.t3 outputibias.t8 gnd.t324 gnd.t323 sky130_fd_pr__nfet_01v8 ad=2.34 pd=12.78 as=2.34 ps=12.78 w=6 l=2
X110 a_n1986_13878.t35 a_n1986_13878.t34 a_n1808_13878.t14 vdd.t263 sky130_fd_pr__pfet_01v8_lvt ad=1.485 pd=9.33 as=1.485 ps=9.33 w=9 l=0.5
X111 CSoutput.t205 a_n1986_8322.t0 sky130_fd_pr__cap_mim_m3_1 l=12 w=12
X112 vdd.t274 a_n7636_8799.t61 CSoutput.t121 vdd.t273 sky130_fd_pr__pfet_01v8_lvt ad=1.32 pd=8.33 as=1.32 ps=8.33 w=8 l=0.5
X113 a_n7636_8799.t24 a_n1986_13878.t44 a_n1986_8322.t1 vdd.t253 sky130_fd_pr__pfet_01v8_lvt ad=1.485 pd=9.33 as=1.485 ps=9.33 w=9 l=0.5
X114 vdd.t289 a_n7636_8799.t62 CSoutput.t120 vdd.t36 sky130_fd_pr__pfet_01v8_lvt ad=1.32 pd=8.33 as=1.32 ps=8.33 w=8 l=0.5
X115 a_n1986_13878.t17 a_n1986_13878.t16 a_n1808_13878.t13 vdd.t225 sky130_fd_pr__pfet_01v8_lvt ad=3.51 pd=18.78 as=1.485 ps=9.33 w=9 l=0.5
X116 gnd.t169 gnd.t166 gnd.t168 gnd.t167 sky130_fd_pr__nfet_01v8 ad=2.34 pd=12.78 as=0 ps=0 w=6 l=2
X117 vdd.t41 a_n7636_8799.t63 CSoutput.t119 vdd.t40 sky130_fd_pr__pfet_01v8_lvt ad=1.32 pd=8.33 as=1.32 ps=8.33 w=8 l=0.5
X118 diffpairibias.t15 diffpairibias.t14 gnd.t262 gnd.t261 sky130_fd_pr__nfet_01v8 ad=2.73 pd=14.78 as=2.73 ps=14.78 w=7 l=1
X119 a_n3827_n3924.t3 minus.t11 a_n1986_13878.t1 gnd.t5 sky130_fd_pr__nfet_01v8 ad=2.73 pd=14.78 as=1.155 ps=7.33 w=7 l=0.5
X120 output.t2 outputibias.t9 gnd.t273 gnd.t272 sky130_fd_pr__nfet_01v8 ad=2.34 pd=12.78 as=2.34 ps=12.78 w=6 l=2
X121 gnd.t221 commonsourceibias.t95 CSoutput.t34 gnd.t220 sky130_fd_pr__nfet_01v8 ad=1.155 pd=7.33 as=1.155 ps=7.33 w=7 l=1
X122 vdd.t275 a_n7636_8799.t64 CSoutput.t118 vdd.t136 sky130_fd_pr__pfet_01v8_lvt ad=1.32 pd=8.33 as=1.32 ps=8.33 w=8 l=0.5
X123 gnd.t314 commonsourceibias.t96 CSoutput.t182 gnd.t92 sky130_fd_pr__nfet_01v8 ad=1.155 pd=7.33 as=1.155 ps=7.33 w=7 l=1
X124 gnd.t315 commonsourceibias.t97 CSoutput.t183 gnd.t205 sky130_fd_pr__nfet_01v8 ad=1.155 pd=7.33 as=1.155 ps=7.33 w=7 l=1
X125 gnd.t284 commonsourceibias.t98 CSoutput.t176 gnd.t73 sky130_fd_pr__nfet_01v8 ad=1.155 pd=7.33 as=1.155 ps=7.33 w=7 l=1
X126 CSoutput.t117 a_n7636_8799.t65 vdd.t284 vdd.t74 sky130_fd_pr__pfet_01v8_lvt ad=1.32 pd=8.33 as=1.32 ps=8.33 w=8 l=0.5
X127 gnd.t285 commonsourceibias.t99 CSoutput.t177 gnd.t75 sky130_fd_pr__nfet_01v8 ad=1.155 pd=7.33 as=1.155 ps=7.33 w=7 l=1
X128 gnd.t23 commonsourceibias.t100 CSoutput.t7 gnd.t22 sky130_fd_pr__nfet_01v8 ad=2.73 pd=14.78 as=1.155 ps=7.33 w=7 l=1
X129 gnd.t165 gnd.t163 gnd.t164 gnd.t121 sky130_fd_pr__nfet_01v8 ad=2.73 pd=14.78 as=0 ps=0 w=7 l=1
X130 vdd.t202 vdd.t200 vdd.t201 vdd.t186 sky130_fd_pr__pfet_01v8_lvt ad=3.51 pd=18.78 as=0 ps=0 w=9 l=0.5
X131 vdd.t278 a_n7636_8799.t66 CSoutput.t116 vdd.t82 sky130_fd_pr__pfet_01v8_lvt ad=1.32 pd=8.33 as=1.32 ps=8.33 w=8 l=0.5
X132 a_n3827_n3924.t33 diffpairibias.t23 gnd.t350 gnd.t349 sky130_fd_pr__nfet_01v8 ad=2.73 pd=14.78 as=2.73 ps=14.78 w=7 l=1
X133 vdd.t218 CSoutput.t206 output.t14 gnd.t316 sky130_fd_pr__nfet_01v8_lvt ad=0.825 pd=5.33 as=0.825 ps=5.33 w=5 l=1
X134 CSoutput.t115 a_n7636_8799.t67 vdd.t50 vdd.t49 sky130_fd_pr__pfet_01v8_lvt ad=1.32 pd=8.33 as=1.32 ps=8.33 w=8 l=0.5
X135 a_n1986_13878.t2 minus.t12 a_n3827_n3924.t4 gnd.t4 sky130_fd_pr__nfet_01v8 ad=1.155 pd=7.33 as=1.155 ps=7.33 w=7 l=0.5
X136 vdd.t199 vdd.t196 vdd.t198 vdd.t197 sky130_fd_pr__pfet_01v8_lvt ad=3.51 pd=18.78 as=0 ps=0 w=9 l=0.5
X137 CSoutput.t8 commonsourceibias.t101 gnd.t25 gnd.t24 sky130_fd_pr__nfet_01v8 ad=1.155 pd=7.33 as=2.73 ps=14.78 w=7 l=1
X138 gnd.t299 commonsourceibias.t48 commonsourceibias.t49 gnd.t55 sky130_fd_pr__nfet_01v8 ad=1.155 pd=7.33 as=1.155 ps=7.33 w=7 l=1
X139 vdd.t195 vdd.t192 vdd.t194 vdd.t193 sky130_fd_pr__pfet_01v8_lvt ad=3.51 pd=18.78 as=0 ps=0 w=9 l=0.5
X140 a_n3827_n3924.t5 plus.t10 a_n7636_8799.t2 gnd.t80 sky130_fd_pr__nfet_01v8 ad=1.155 pd=7.33 as=1.155 ps=7.33 w=7 l=0.5
X141 vdd.t191 vdd.t189 vdd.t190 vdd.t182 sky130_fd_pr__pfet_01v8_lvt ad=3.51 pd=18.78 as=0 ps=0 w=9 l=0.5
X142 vdd.t262 a_n1986_13878.t45 a_n1986_8322.t16 vdd.t261 sky130_fd_pr__pfet_01v8_lvt ad=1.485 pd=9.33 as=1.485 ps=9.33 w=9 l=0.5
X143 gnd.t282 commonsourceibias.t102 CSoutput.t174 gnd.t238 sky130_fd_pr__nfet_01v8 ad=1.155 pd=7.33 as=1.155 ps=7.33 w=7 l=1
X144 a_n1986_8322.t15 a_n1986_13878.t46 vdd.t260 vdd.t259 sky130_fd_pr__pfet_01v8_lvt ad=1.485 pd=9.33 as=1.485 ps=9.33 w=9 l=0.5
X145 CSoutput.t114 a_n7636_8799.t68 vdd.t39 vdd.t38 sky130_fd_pr__pfet_01v8_lvt ad=1.32 pd=8.33 as=1.32 ps=8.33 w=8 l=0.5
X146 CSoutput.t113 a_n7636_8799.t69 vdd.t276 vdd.t44 sky130_fd_pr__pfet_01v8_lvt ad=1.32 pd=8.33 as=3.12 ps=16.78 w=8 l=0.5
X147 vdd.t55 a_n7636_8799.t70 CSoutput.t112 vdd.t40 sky130_fd_pr__pfet_01v8_lvt ad=1.32 pd=8.33 as=1.32 ps=8.33 w=8 l=0.5
X148 gnd.t209 commonsourceibias.t46 commonsourceibias.t47 gnd.t75 sky130_fd_pr__nfet_01v8 ad=1.155 pd=7.33 as=1.155 ps=7.33 w=7 l=1
X149 vdd.t258 a_n1986_13878.t47 a_n1808_13878.t6 vdd.t257 sky130_fd_pr__pfet_01v8_lvt ad=1.485 pd=9.33 as=1.485 ps=9.33 w=9 l=0.5
X150 a_n7636_8799.t0 plus.t11 a_n3827_n3924.t0 gnd.t2 sky130_fd_pr__nfet_01v8 ad=1.155 pd=7.33 as=2.73 ps=14.78 w=7 l=0.5
X151 vdd.t188 vdd.t185 vdd.t187 vdd.t186 sky130_fd_pr__pfet_01v8_lvt ad=3.51 pd=18.78 as=0 ps=0 w=9 l=0.5
X152 diffpairibias.t13 diffpairibias.t12 gnd.t228 gnd.t227 sky130_fd_pr__nfet_01v8 ad=2.73 pd=14.78 as=2.73 ps=14.78 w=7 l=1
X153 CSoutput.t207 a_n1986_8322.t0 sky130_fd_pr__cap_mim_m3_1 l=12 w=12
X154 CSoutput.t175 commonsourceibias.t103 gnd.t283 gnd.t34 sky130_fd_pr__nfet_01v8 ad=1.155 pd=7.33 as=1.155 ps=7.33 w=7 l=1
X155 vdd.t184 vdd.t181 vdd.t183 vdd.t182 sky130_fd_pr__pfet_01v8_lvt ad=3.51 pd=18.78 as=0 ps=0 w=9 l=0.5
X156 vdd.t69 a_n7636_8799.t71 CSoutput.t111 vdd.t36 sky130_fd_pr__pfet_01v8_lvt ad=1.32 pd=8.33 as=1.32 ps=8.33 w=8 l=0.5
X157 CSoutput.t13 commonsourceibias.t104 gnd.t43 gnd.t36 sky130_fd_pr__nfet_01v8 ad=1.155 pd=7.33 as=1.155 ps=7.33 w=7 l=1
X158 commonsourceibias.t45 commonsourceibias.t44 gnd.t65 gnd.t64 sky130_fd_pr__nfet_01v8 ad=1.155 pd=7.33 as=1.155 ps=7.33 w=7 l=1
X159 CSoutput.t14 commonsourceibias.t105 gnd.t45 gnd.t44 sky130_fd_pr__nfet_01v8 ad=1.155 pd=7.33 as=1.155 ps=7.33 w=7 l=1
X160 vdd.t180 vdd.t177 vdd.t179 vdd.t178 sky130_fd_pr__pfet_01v8_lvt ad=3.51 pd=18.78 as=0 ps=0 w=9 l=0.5
X161 gnd.t9 commonsourceibias.t106 CSoutput.t1 gnd.t8 sky130_fd_pr__nfet_01v8 ad=2.73 pd=14.78 as=1.155 ps=7.33 w=7 l=1
X162 CSoutput.t2 commonsourceibias.t107 gnd.t11 gnd.t10 sky130_fd_pr__nfet_01v8 ad=1.155 pd=7.33 as=1.155 ps=7.33 w=7 l=1
X163 a_n1986_8322.t14 a_n1986_13878.t48 vdd.t256 vdd.t255 sky130_fd_pr__pfet_01v8_lvt ad=3.51 pd=18.78 as=1.485 ps=9.33 w=9 l=0.5
X164 a_n7636_8799.t23 a_n1986_13878.t49 a_n1986_8322.t4 vdd.t230 sky130_fd_pr__pfet_01v8_lvt ad=1.485 pd=9.33 as=1.485 ps=9.33 w=9 l=0.5
X165 CSoutput.t110 a_n7636_8799.t72 vdd.t27 vdd.t7 sky130_fd_pr__pfet_01v8_lvt ad=1.32 pd=8.33 as=1.32 ps=8.33 w=8 l=0.5
X166 plus.t2 gnd.t160 gnd.t162 gnd.t161 sky130_fd_pr__nfet_01v8 ad=0.165 pd=1.33 as=0.165 ps=1.33 w=1 l=0.5
X167 vdd.t271 a_n7636_8799.t73 CSoutput.t109 vdd.t11 sky130_fd_pr__pfet_01v8_lvt ad=1.32 pd=8.33 as=1.32 ps=8.33 w=8 l=0.5
X168 vdd.t282 a_n7636_8799.t74 CSoutput.t108 vdd.t136 sky130_fd_pr__pfet_01v8_lvt ad=1.32 pd=8.33 as=1.32 ps=8.33 w=8 l=0.5
X169 a_n1986_13878.t13 a_n1986_13878.t12 a_n1808_13878.t12 vdd.t241 sky130_fd_pr__pfet_01v8_lvt ad=1.485 pd=9.33 as=1.485 ps=9.33 w=9 l=0.5
X170 CSoutput.t181 commonsourceibias.t108 gnd.t311 gnd.t251 sky130_fd_pr__nfet_01v8 ad=1.155 pd=7.33 as=1.155 ps=7.33 w=7 l=1
X171 gnd.t159 gnd.t157 minus.t3 gnd.t158 sky130_fd_pr__nfet_01v8 ad=0.165 pd=1.33 as=0.165 ps=1.33 w=1 l=0.5
X172 a_n7636_8799.t22 a_n1986_13878.t50 a_n1986_8322.t7 vdd.t254 sky130_fd_pr__pfet_01v8_lvt ad=1.485 pd=9.33 as=1.485 ps=9.33 w=9 l=0.5
X173 CSoutput.t107 a_n7636_8799.t75 vdd.t120 vdd.t74 sky130_fd_pr__pfet_01v8_lvt ad=1.32 pd=8.33 as=1.32 ps=8.33 w=8 l=0.5
X174 gnd.t245 commonsourceibias.t109 CSoutput.t162 gnd.t244 sky130_fd_pr__nfet_01v8 ad=1.155 pd=7.33 as=1.155 ps=7.33 w=7 l=1
X175 gnd.t300 commonsourceibias.t42 commonsourceibias.t43 gnd.t18 sky130_fd_pr__nfet_01v8 ad=1.155 pd=7.33 as=1.155 ps=7.33 w=7 l=1
X176 a_n1986_13878.t6 minus.t13 a_n3827_n3924.t12 gnd.t223 sky130_fd_pr__nfet_01v8 ad=1.155 pd=7.33 as=1.155 ps=7.33 w=7 l=0.5
X177 a_n1808_13878.t11 a_n1986_13878.t32 a_n1986_13878.t33 vdd.t253 sky130_fd_pr__pfet_01v8_lvt ad=1.485 pd=9.33 as=1.485 ps=9.33 w=9 l=0.5
X178 gnd.t344 commonsourceibias.t110 CSoutput.t195 gnd.t207 sky130_fd_pr__nfet_01v8 ad=1.155 pd=7.33 as=1.155 ps=7.33 w=7 l=1
X179 commonsourceibias.t41 commonsourceibias.t40 gnd.t210 gnd.t66 sky130_fd_pr__nfet_01v8 ad=1.155 pd=7.33 as=1.155 ps=7.33 w=7 l=1
X180 gnd.t249 commonsourceibias.t38 commonsourceibias.t39 gnd.t238 sky130_fd_pr__nfet_01v8 ad=1.155 pd=7.33 as=1.155 ps=7.33 w=7 l=1
X181 vdd.t252 a_n1986_13878.t51 a_n1986_8322.t13 vdd.t251 sky130_fd_pr__pfet_01v8_lvt ad=1.485 pd=9.33 as=3.51 ps=18.78 w=9 l=0.5
X182 CSoutput.t106 a_n7636_8799.t76 vdd.t85 vdd.t84 sky130_fd_pr__pfet_01v8_lvt ad=1.32 pd=8.33 as=1.32 ps=8.33 w=8 l=0.5
X183 vdd.t6 a_n7636_8799.t77 CSoutput.t105 vdd.t5 sky130_fd_pr__pfet_01v8_lvt ad=1.32 pd=8.33 as=1.32 ps=8.33 w=8 l=0.5
X184 gnd.t301 commonsourceibias.t36 commonsourceibias.t37 gnd.t244 sky130_fd_pr__nfet_01v8 ad=1.155 pd=7.33 as=1.155 ps=7.33 w=7 l=1
X185 a_n3827_n3924.t32 diffpairibias.t24 gnd.t260 gnd.t259 sky130_fd_pr__nfet_01v8 ad=2.73 pd=14.78 as=2.73 ps=14.78 w=7 l=1
X186 commonsourceibias.t35 commonsourceibias.t34 gnd.t250 gnd.t47 sky130_fd_pr__nfet_01v8 ad=1.155 pd=7.33 as=1.155 ps=7.33 w=7 l=1
X187 a_n3827_n3924.t31 diffpairibias.t25 gnd.t339 gnd.t338 sky130_fd_pr__nfet_01v8 ad=2.73 pd=14.78 as=2.73 ps=14.78 w=7 l=1
X188 gnd.t33 commonsourceibias.t111 CSoutput.t10 gnd.t32 sky130_fd_pr__nfet_01v8 ad=1.155 pd=7.33 as=1.155 ps=7.33 w=7 l=1
X189 a_n1986_13878.t4 minus.t14 a_n3827_n3924.t10 gnd.t217 sky130_fd_pr__nfet_01v8 ad=1.155 pd=7.33 as=1.155 ps=7.33 w=7 l=0.5
X190 CSoutput.t104 a_n7636_8799.t78 vdd.t285 vdd.t58 sky130_fd_pr__pfet_01v8_lvt ad=1.32 pd=8.33 as=1.32 ps=8.33 w=8 l=0.5
X191 gnd.t277 commonsourceibias.t112 CSoutput.t169 gnd.t220 sky130_fd_pr__nfet_01v8 ad=1.155 pd=7.33 as=1.155 ps=7.33 w=7 l=1
X192 vdd.t35 a_n7636_8799.t79 CSoutput.t103 vdd.t34 sky130_fd_pr__pfet_01v8_lvt ad=3.12 pd=16.78 as=1.32 ps=8.33 w=8 l=0.5
X193 gnd.t218 commonsourceibias.t113 CSoutput.t32 gnd.t205 sky130_fd_pr__nfet_01v8 ad=1.155 pd=7.33 as=1.155 ps=7.33 w=7 l=1
X194 gnd.t243 commonsourceibias.t114 CSoutput.t161 gnd.t92 sky130_fd_pr__nfet_01v8 ad=1.155 pd=7.33 as=1.155 ps=7.33 w=7 l=1
X195 vdd.t1 a_n7636_8799.t80 CSoutput.t102 vdd.t0 sky130_fd_pr__pfet_01v8_lvt ad=1.32 pd=8.33 as=1.32 ps=8.33 w=8 l=0.5
X196 gnd.t281 commonsourceibias.t115 CSoutput.t173 gnd.t22 sky130_fd_pr__nfet_01v8 ad=2.73 pd=14.78 as=1.155 ps=7.33 w=7 l=1
X197 CSoutput.t208 a_n1986_8322.t0 sky130_fd_pr__cap_mim_m3_1 l=12 w=12
X198 CSoutput.t172 commonsourceibias.t116 gnd.t280 gnd.t68 sky130_fd_pr__nfet_01v8 ad=1.155 pd=7.33 as=1.155 ps=7.33 w=7 l=1
X199 vdd.t61 a_n7636_8799.t81 CSoutput.t101 vdd.t60 sky130_fd_pr__pfet_01v8_lvt ad=1.32 pd=8.33 as=1.32 ps=8.33 w=8 l=0.5
X200 vdd.t110 a_n7636_8799.t82 CSoutput.t100 vdd.t109 sky130_fd_pr__pfet_01v8_lvt ad=1.32 pd=8.33 as=1.32 ps=8.33 w=8 l=0.5
X201 commonsourceibias.t33 commonsourceibias.t32 gnd.t39 gnd.t38 sky130_fd_pr__nfet_01v8 ad=1.155 pd=7.33 as=1.155 ps=7.33 w=7 l=1
X202 vdd.t71 CSoutput.t209 output.t13 gnd.t256 sky130_fd_pr__nfet_01v8_lvt ad=0.825 pd=5.33 as=0.825 ps=5.33 w=5 l=1
X203 CSoutput.t160 commonsourceibias.t117 gnd.t242 gnd.t24 sky130_fd_pr__nfet_01v8 ad=1.155 pd=7.33 as=2.73 ps=14.78 w=7 l=1
X204 a_n1986_13878.t38 minus.t15 a_n3827_n3924.t39 gnd.t89 sky130_fd_pr__nfet_01v8 ad=1.155 pd=7.33 as=1.155 ps=7.33 w=7 l=0.5
X205 CSoutput.t210 a_n1986_8322.t0 sky130_fd_pr__cap_mim_m3_1 l=12 w=12
X206 gnd.t241 commonsourceibias.t118 CSoutput.t159 gnd.t52 sky130_fd_pr__nfet_01v8 ad=1.155 pd=7.33 as=1.155 ps=7.33 w=7 l=1
X207 CSoutput.t158 commonsourceibias.t119 gnd.t240 gnd.t213 sky130_fd_pr__nfet_01v8 ad=1.155 pd=7.33 as=1.155 ps=7.33 w=7 l=1
X208 gnd.t156 gnd.t154 gnd.t155 gnd.t113 sky130_fd_pr__nfet_01v8 ad=2.73 pd=14.78 as=0 ps=0 w=7 l=1
X209 diffpairibias.t11 diffpairibias.t10 gnd.t225 gnd.t224 sky130_fd_pr__nfet_01v8 ad=2.73 pd=14.78 as=2.73 ps=14.78 w=7 l=1
X210 gnd.t239 commonsourceibias.t120 CSoutput.t157 gnd.t238 sky130_fd_pr__nfet_01v8 ad=1.155 pd=7.33 as=1.155 ps=7.33 w=7 l=1
X211 output.t1 outputibias.t10 gnd.t354 gnd.t353 sky130_fd_pr__nfet_01v8 ad=2.34 pd=12.78 as=2.34 ps=12.78 w=6 l=2
X212 gnd.t211 commonsourceibias.t30 commonsourceibias.t31 gnd.t32 sky130_fd_pr__nfet_01v8 ad=1.155 pd=7.33 as=1.155 ps=7.33 w=7 l=1
X213 CSoutput.t99 a_n7636_8799.t83 vdd.t21 vdd.t20 sky130_fd_pr__pfet_01v8_lvt ad=1.32 pd=8.33 as=1.32 ps=8.33 w=8 l=0.5
X214 gnd.t212 commonsourceibias.t28 commonsourceibias.t29 gnd.t8 sky130_fd_pr__nfet_01v8 ad=2.73 pd=14.78 as=1.155 ps=7.33 w=7 l=1
X215 a_n3827_n3924.t21 plus.t12 a_n7636_8799.t11 gnd.t3 sky130_fd_pr__nfet_01v8 ad=1.155 pd=7.33 as=1.155 ps=7.33 w=7 l=0.5
X216 CSoutput.t98 a_n7636_8799.t84 vdd.t68 vdd.t67 sky130_fd_pr__pfet_01v8_lvt ad=1.32 pd=8.33 as=1.32 ps=8.33 w=8 l=0.5
X217 commonsourceibias.t27 commonsourceibias.t26 gnd.t252 gnd.t251 sky130_fd_pr__nfet_01v8 ad=1.155 pd=7.33 as=1.155 ps=7.33 w=7 l=1
X218 CSoutput.t97 a_n7636_8799.t85 vdd.t56 vdd.t51 sky130_fd_pr__pfet_01v8_lvt ad=1.32 pd=8.33 as=1.32 ps=8.33 w=8 l=0.5
X219 CSoutput.t190 commonsourceibias.t121 gnd.t335 gnd.t287 sky130_fd_pr__nfet_01v8 ad=1.155 pd=7.33 as=1.155 ps=7.33 w=7 l=1
X220 gnd.t153 gnd.t151 gnd.t152 gnd.t107 sky130_fd_pr__nfet_01v8 ad=2.73 pd=14.78 as=0 ps=0 w=7 l=0.5
X221 plus.t1 gnd.t148 gnd.t150 gnd.t149 sky130_fd_pr__nfet_01v8 ad=0.165 pd=1.33 as=0.165 ps=1.33 w=1 l=0.5
X222 a_n1808_13878.t5 a_n1986_13878.t52 vdd.t237 vdd.t236 sky130_fd_pr__pfet_01v8_lvt ad=1.485 pd=9.33 as=1.485 ps=9.33 w=9 l=0.5
X223 diffpairibias.t9 diffpairibias.t8 gnd.t86 gnd.t85 sky130_fd_pr__nfet_01v8 ad=2.73 pd=14.78 as=2.73 ps=14.78 w=7 l=1
X224 a_n3827_n3924.t7 plus.t13 a_n7636_8799.t4 gnd.t90 sky130_fd_pr__nfet_01v8 ad=1.155 pd=7.33 as=1.155 ps=7.33 w=7 l=0.5
X225 gnd.t147 gnd.t145 gnd.t146 gnd.t99 sky130_fd_pr__nfet_01v8 ad=2.73 pd=14.78 as=0 ps=0 w=7 l=0.5
X226 gnd.t144 gnd.t142 minus.t2 gnd.t143 sky130_fd_pr__nfet_01v8 ad=0.39 pd=2.78 as=0.165 ps=1.33 w=1 l=0.5
X227 vdd.t250 a_n1986_13878.t53 a_n1808_13878.t4 vdd.t249 sky130_fd_pr__pfet_01v8_lvt ad=1.485 pd=9.33 as=1.485 ps=9.33 w=9 l=0.5
X228 vdd.t176 vdd.t174 vdd.t175 vdd.t150 sky130_fd_pr__pfet_01v8_lvt ad=3.12 pd=16.78 as=0 ps=0 w=8 l=0.5
X229 vdd.t173 vdd.t171 vdd.t172 vdd.t158 sky130_fd_pr__pfet_01v8_lvt ad=3.12 pd=16.78 as=0 ps=0 w=8 l=0.5
X230 CSoutput.t96 a_n7636_8799.t86 vdd.t112 vdd.t84 sky130_fd_pr__pfet_01v8_lvt ad=1.32 pd=8.33 as=1.32 ps=8.33 w=8 l=0.5
X231 gnd.t302 commonsourceibias.t24 commonsourceibias.t25 gnd.t73 sky130_fd_pr__nfet_01v8 ad=1.155 pd=7.33 as=1.155 ps=7.33 w=7 l=1
X232 CSoutput.t189 commonsourceibias.t122 gnd.t334 gnd.t254 sky130_fd_pr__nfet_01v8 ad=1.155 pd=7.33 as=2.73 ps=14.78 w=7 l=1
X233 vdd.t133 a_n7636_8799.t87 CSoutput.t95 vdd.t5 sky130_fd_pr__pfet_01v8_lvt ad=1.32 pd=8.33 as=1.32 ps=8.33 w=8 l=0.5
X234 vdd.t170 vdd.t168 vdd.t169 vdd.t158 sky130_fd_pr__pfet_01v8_lvt ad=3.12 pd=16.78 as=0 ps=0 w=8 l=0.5
X235 diffpairibias.t7 diffpairibias.t6 gnd.t88 gnd.t87 sky130_fd_pr__nfet_01v8 ad=2.73 pd=14.78 as=2.73 ps=14.78 w=7 l=1
X236 gnd.t333 commonsourceibias.t123 CSoutput.t188 gnd.t8 sky130_fd_pr__nfet_01v8 ad=2.73 pd=14.78 as=1.155 ps=7.33 w=7 l=1
X237 CSoutput.t94 a_n7636_8799.t88 vdd.t59 vdd.t58 sky130_fd_pr__pfet_01v8_lvt ad=1.32 pd=8.33 as=1.32 ps=8.33 w=8 l=0.5
X238 vdd.t66 a_n7636_8799.t89 CSoutput.t93 vdd.t34 sky130_fd_pr__pfet_01v8_lvt ad=3.12 pd=16.78 as=1.32 ps=8.33 w=8 l=0.5
X239 vdd.t86 a_n7636_8799.t90 CSoutput.t92 vdd.t0 sky130_fd_pr__pfet_01v8_lvt ad=1.32 pd=8.33 as=1.32 ps=8.33 w=8 l=0.5
X240 CSoutput.t184 commonsourceibias.t124 gnd.t329 gnd.t62 sky130_fd_pr__nfet_01v8 ad=1.155 pd=7.33 as=1.155 ps=7.33 w=7 l=1
X241 CSoutput.t187 commonsourceibias.t125 gnd.t332 gnd.t251 sky130_fd_pr__nfet_01v8 ad=1.155 pd=7.33 as=1.155 ps=7.33 w=7 l=1
X242 gnd.t141 gnd.t138 gnd.t140 gnd.t139 sky130_fd_pr__nfet_01v8 ad=2.34 pd=12.78 as=0 ps=0 w=6 l=2
X243 gnd.t331 commonsourceibias.t126 CSoutput.t186 gnd.t244 sky130_fd_pr__nfet_01v8 ad=1.155 pd=7.33 as=1.155 ps=7.33 w=7 l=1
X244 CSoutput.t91 a_n7636_8799.t91 vdd.t125 vdd.t118 sky130_fd_pr__pfet_01v8_lvt ad=1.32 pd=8.33 as=1.32 ps=8.33 w=8 l=0.5