* NGSPICE file created from opamp188.ext - technology: sky130A

.subckt opamp188 gnd CSoutput output vdd plus minus commonsourceibias outputibias
+ diffpairibias
X0 a_n2804_13878.t7 a_n2982_13878.t68 vdd.t224 vdd.t223 sky130_fd_pr__pfet_01v8 ad=1.485 pd=9.33 as=1.485 ps=9.33 w=9 l=0.5
X1 a_n2804_13878.t31 a_n2982_13878.t25 a_n2982_13878.t26 vdd.t211 sky130_fd_pr__pfet_01v8 ad=1.485 pd=9.33 as=1.485 ps=9.33 w=9 l=0.5
X2 vdd.t69 a_n8300_8799.t44 CSoutput.t80 vdd.t68 sky130_fd_pr__pfet_01v8 ad=1.32 pd=8.33 as=1.32 ps=8.33 w=8 l=0.5
X3 outputibias.t1 outputibias.t0 gnd.t310 gnd.t309 sky130_fd_pr__nfet_01v8 ad=2.34 pd=12.78 as=2.34 ps=12.78 w=6 l=2
X4 CSoutput.t79 a_n8300_8799.t45 vdd.t70 vdd.t35 sky130_fd_pr__pfet_01v8 ad=1.32 pd=8.33 as=3.12 ps=16.78 w=8 l=0.5
X5 a_n3827_n3924.t18 diffpairibias.t20 gnd.t288 gnd.t287 sky130_fd_pr__nfet_01v8 ad=2.73 pd=14.78 as=2.73 ps=14.78 w=7 l=1
X6 gnd.t291 commonsourceibias.t80 CSoutput.t138 gnd.t40 sky130_fd_pr__nfet_01v8 ad=1.155 pd=7.33 as=1.155 ps=7.33 w=7 l=1
X7 gnd.t183 gnd.t181 gnd.t182 gnd.t148 sky130_fd_pr__nfet_01v8 ad=2.73 pd=14.78 as=0 ps=0 w=7 l=1
X8 commonsourceibias.t79 commonsourceibias.t78 gnd.t293 gnd.t51 sky130_fd_pr__nfet_01v8 ad=1.155 pd=7.33 as=2.73 ps=14.78 w=7 l=1
X9 commonsourceibias.t77 commonsourceibias.t76 gnd.t294 gnd.t210 sky130_fd_pr__nfet_01v8 ad=1.155 pd=7.33 as=1.155 ps=7.33 w=7 l=1
X10 gnd.t180 gnd.t178 gnd.t179 gnd.t148 sky130_fd_pr__nfet_01v8 ad=2.73 pd=14.78 as=0 ps=0 w=7 l=1
X11 vdd.t16 CSoutput.t152 output.t19 gnd.t326 sky130_fd_pr__nfet_01v8 ad=0.825 pd=5.33 as=0.825 ps=5.33 w=5 l=1
X12 a_n2982_8322.t29 a_n2982_13878.t69 a_n8300_8799.t25 vdd.t221 sky130_fd_pr__pfet_01v8 ad=1.485 pd=9.33 as=1.485 ps=9.33 w=9 l=0.5
X13 gnd.t177 gnd.t175 gnd.t176 gnd.t93 sky130_fd_pr__nfet_01v8 ad=2.73 pd=14.78 as=0 ps=0 w=7 l=1
X14 CSoutput.t139 commonsourceibias.t81 gnd.t292 gnd.t258 sky130_fd_pr__nfet_01v8 ad=1.155 pd=7.33 as=1.155 ps=7.33 w=7 l=1
X15 CSoutput.t78 a_n8300_8799.t46 vdd.t66 vdd.t46 sky130_fd_pr__pfet_01v8 ad=1.32 pd=8.33 as=1.32 ps=8.33 w=8 l=0.5
X16 gnd.t255 commonsourceibias.t74 commonsourceibias.t75 gnd.t7 sky130_fd_pr__nfet_01v8 ad=2.73 pd=14.78 as=1.155 ps=7.33 w=7 l=1
X17 gnd.t174 gnd.t172 plus.t4 gnd.t173 sky130_fd_pr__nfet_01v8 ad=0.39 pd=2.78 as=0.165 ps=1.33 w=1 l=0.5
X18 CSoutput.t146 commonsourceibias.t82 gnd.t348 gnd.t265 sky130_fd_pr__nfet_01v8 ad=1.155 pd=7.33 as=1.155 ps=7.33 w=7 l=1
X19 a_n8300_8799.t12 plus.t5 a_n3827_n3924.t35 gnd.t26 sky130_fd_pr__nfet_01v8 ad=1.155 pd=7.33 as=1.155 ps=7.33 w=7 l=0.5
X20 vdd.t67 a_n8300_8799.t47 CSoutput.t77 vdd.t49 sky130_fd_pr__pfet_01v8 ad=3.12 pd=16.78 as=1.32 ps=8.33 w=8 l=0.5
X21 gnd.t171 gnd.t169 gnd.t170 gnd.t93 sky130_fd_pr__nfet_01v8 ad=2.73 pd=14.78 as=0 ps=0 w=7 l=1
X22 minus.t4 gnd.t166 gnd.t168 gnd.t167 sky130_fd_pr__nfet_01v8 ad=0.165 pd=1.33 as=0.165 ps=1.33 w=1 l=0.5
X23 commonsourceibias.t73 commonsourceibias.t72 gnd.t266 gnd.t265 sky130_fd_pr__nfet_01v8 ad=1.155 pd=7.33 as=1.155 ps=7.33 w=7 l=1
X24 vdd.t17 CSoutput.t153 output.t18 gnd.t325 sky130_fd_pr__nfet_01v8 ad=0.825 pd=5.33 as=0.825 ps=5.33 w=5 l=1
X25 a_n8300_8799.t30 a_n2982_13878.t70 a_n2982_8322.t28 vdd.t207 sky130_fd_pr__pfet_01v8 ad=1.485 pd=9.33 as=1.485 ps=9.33 w=9 l=0.5
X26 CSoutput.t147 commonsourceibias.t83 gnd.t349 gnd.t231 sky130_fd_pr__nfet_01v8 ad=1.155 pd=7.33 as=1.155 ps=7.33 w=7 l=1
X27 vdd.t225 a_n8300_8799.t48 CSoutput.t76 vdd.t52 sky130_fd_pr__pfet_01v8 ad=1.32 pd=8.33 as=1.32 ps=8.33 w=8 l=0.5
X28 vdd.t226 a_n8300_8799.t49 CSoutput.t75 vdd.t22 sky130_fd_pr__pfet_01v8 ad=1.32 pd=8.33 as=1.32 ps=8.33 w=8 l=0.5
X29 a_n8300_8799.t36 a_n2982_13878.t71 a_n2982_8322.t27 vdd.t170 sky130_fd_pr__pfet_01v8 ad=1.485 pd=9.33 as=3.51 ps=18.78 w=9 l=0.5
X30 a_n8300_8799.t3 plus.t6 a_n3827_n3924.t22 gnd.t1 sky130_fd_pr__nfet_01v8 ad=1.155 pd=7.33 as=1.155 ps=7.33 w=7 l=0.5
X31 gnd.t165 gnd.t162 gnd.t164 gnd.t163 sky130_fd_pr__nfet_01v8 ad=1.95 pd=10.78 as=0 ps=0 w=5 l=1
X32 commonsourceibias.t71 commonsourceibias.t70 gnd.t263 gnd.t42 sky130_fd_pr__nfet_01v8 ad=1.155 pd=7.33 as=1.155 ps=7.33 w=7 l=1
X33 a_n3827_n3924.t17 diffpairibias.t21 gnd.t194 gnd.t193 sky130_fd_pr__nfet_01v8 ad=2.73 pd=14.78 as=2.73 ps=14.78 w=7 l=1
X34 CSoutput.t150 commonsourceibias.t84 gnd.t357 gnd.t274 sky130_fd_pr__nfet_01v8 ad=1.155 pd=7.33 as=1.155 ps=7.33 w=7 l=1
X35 a_n3827_n3924.t45 minus.t5 a_n2982_13878.t67 gnd.t345 sky130_fd_pr__nfet_01v8 ad=1.155 pd=7.33 as=1.155 ps=7.33 w=7 l=0.5
X36 CSoutput.t74 a_n8300_8799.t50 vdd.t227 vdd.t43 sky130_fd_pr__pfet_01v8 ad=1.32 pd=8.33 as=1.32 ps=8.33 w=8 l=0.5
X37 gnd.t358 commonsourceibias.t85 CSoutput.t151 gnd.t58 sky130_fd_pr__nfet_01v8 ad=1.155 pd=7.33 as=1.155 ps=7.33 w=7 l=1
X38 a_n3827_n3924.t37 plus.t7 a_n8300_8799.t13 gnd.t289 sky130_fd_pr__nfet_01v8 ad=1.155 pd=7.33 as=1.155 ps=7.33 w=7 l=0.5
X39 vdd.t228 a_n8300_8799.t51 CSoutput.t73 vdd.t52 sky130_fd_pr__pfet_01v8 ad=1.32 pd=8.33 as=1.32 ps=8.33 w=8 l=0.5
X40 gnd.t161 gnd.t159 gnd.t160 gnd.t81 sky130_fd_pr__nfet_01v8 ad=2.73 pd=14.78 as=0 ps=0 w=7 l=1
X41 gnd.t57 commonsourceibias.t68 commonsourceibias.t69 gnd.t5 sky130_fd_pr__nfet_01v8 ad=1.155 pd=7.33 as=1.155 ps=7.33 w=7 l=1
X42 a_n2982_13878.t7 minus.t6 a_n3827_n3924.t8 gnd.t28 sky130_fd_pr__nfet_01v8 ad=1.155 pd=7.33 as=1.155 ps=7.33 w=7 l=0.5
X43 a_n3827_n3924.t24 plus.t8 a_n8300_8799.t4 gnd.t214 sky130_fd_pr__nfet_01v8 ad=1.155 pd=7.33 as=1.155 ps=7.33 w=7 l=0.5
X44 a_n3827_n3924.t32 minus.t7 a_n2982_13878.t12 gnd.t248 sky130_fd_pr__nfet_01v8 ad=1.155 pd=7.33 as=1.155 ps=7.33 w=7 l=0.5
X45 commonsourceibias.t67 commonsourceibias.t66 gnd.t64 gnd.t31 sky130_fd_pr__nfet_01v8 ad=1.155 pd=7.33 as=1.155 ps=7.33 w=7 l=1
X46 gnd.t271 commonsourceibias.t86 CSoutput.t131 gnd.t15 sky130_fd_pr__nfet_01v8 ad=1.155 pd=7.33 as=1.155 ps=7.33 w=7 l=1
X47 a_n2804_13878.t30 a_n2982_13878.t43 a_n2982_13878.t44 vdd.t180 sky130_fd_pr__pfet_01v8 ad=1.485 pd=9.33 as=1.485 ps=9.33 w=9 l=0.5
X48 gnd.t272 commonsourceibias.t87 CSoutput.t132 gnd.t17 sky130_fd_pr__nfet_01v8 ad=1.155 pd=7.33 as=1.155 ps=7.33 w=7 l=1
X49 a_n2982_13878.t38 a_n2982_13878.t37 a_n2804_13878.t29 vdd.t191 sky130_fd_pr__pfet_01v8 ad=1.485 pd=9.33 as=1.485 ps=9.33 w=9 l=0.5
X50 gnd.t257 commonsourceibias.t88 CSoutput.t125 gnd.t185 sky130_fd_pr__nfet_01v8 ad=1.155 pd=7.33 as=1.155 ps=7.33 w=7 l=1
X51 CSoutput.t72 a_n8300_8799.t52 vdd.t48 vdd.t46 sky130_fd_pr__pfet_01v8 ad=1.32 pd=8.33 as=1.32 ps=8.33 w=8 l=0.5
X52 output.t17 CSoutput.t154 vdd.t18 gnd.t324 sky130_fd_pr__nfet_01v8 ad=0.825 pd=5.33 as=0.825 ps=5.33 w=5 l=1
X53 a_n3827_n3924.t3 minus.t8 a_n2982_13878.t3 gnd.t3 sky130_fd_pr__nfet_01v8 ad=1.155 pd=7.33 as=1.155 ps=7.33 w=7 l=0.5
X54 vdd.t156 vdd.t154 vdd.t155 vdd.t131 sky130_fd_pr__pfet_01v8 ad=3.51 pd=18.78 as=0 ps=0 w=9 l=0.5
X55 vdd.t50 a_n8300_8799.t53 CSoutput.t71 vdd.t49 sky130_fd_pr__pfet_01v8 ad=3.12 pd=16.78 as=1.32 ps=8.33 w=8 l=0.5
X56 gnd.t59 commonsourceibias.t64 commonsourceibias.t65 gnd.t58 sky130_fd_pr__nfet_01v8 ad=1.155 pd=7.33 as=1.155 ps=7.33 w=7 l=1
X57 diffpairibias.t19 diffpairibias.t18 gnd.t223 gnd.t222 sky130_fd_pr__nfet_01v8 ad=2.73 pd=14.78 as=2.73 ps=14.78 w=7 l=1
X58 commonsourceibias.t63 commonsourceibias.t62 gnd.t66 gnd.t65 sky130_fd_pr__nfet_01v8 ad=1.155 pd=7.33 as=1.155 ps=7.33 w=7 l=1
X59 a_n2982_13878.t24 a_n2982_13878.t23 a_n2804_13878.t28 vdd.t206 sky130_fd_pr__pfet_01v8 ad=1.485 pd=9.33 as=1.485 ps=9.33 w=9 l=0.5
X60 gnd.t158 gnd.t156 gnd.t157 gnd.t101 sky130_fd_pr__nfet_01v8 ad=2.73 pd=14.78 as=0 ps=0 w=7 l=0.5
X61 a_n8300_8799.t38 a_n2982_13878.t72 a_n2982_8322.t26 vdd.t201 sky130_fd_pr__pfet_01v8 ad=1.485 pd=9.33 as=1.485 ps=9.33 w=9 l=0.5
X62 CSoutput.t70 a_n8300_8799.t54 vdd.t27 vdd.t26 sky130_fd_pr__pfet_01v8 ad=1.32 pd=8.33 as=1.32 ps=8.33 w=8 l=0.5
X63 commonsourceibias.t61 commonsourceibias.t60 gnd.t60 gnd.t19 sky130_fd_pr__nfet_01v8 ad=1.155 pd=7.33 as=1.155 ps=7.33 w=7 l=1
X64 a_n2982_13878.t62 a_n2982_13878.t61 a_n2804_13878.t27 vdd.t222 sky130_fd_pr__pfet_01v8 ad=1.485 pd=9.33 as=1.485 ps=9.33 w=9 l=0.5
X65 gnd.t155 gnd.t154 plus.t3 gnd.t101 sky130_fd_pr__nfet_01v8 ad=0.165 pd=1.33 as=0.165 ps=1.33 w=1 l=0.5
X66 vdd.t28 a_n8300_8799.t55 CSoutput.t69 vdd.t12 sky130_fd_pr__pfet_01v8 ad=1.32 pd=8.33 as=1.32 ps=8.33 w=8 l=0.5
X67 vdd.t23 a_n8300_8799.t56 CSoutput.t68 vdd.t22 sky130_fd_pr__pfet_01v8 ad=1.32 pd=8.33 as=1.32 ps=8.33 w=8 l=0.5
X68 minus.t3 gnd.t151 gnd.t153 gnd.t152 sky130_fd_pr__nfet_01v8 ad=0.165 pd=1.33 as=0.165 ps=1.33 w=1 l=0.5
X69 a_n8300_8799.t17 a_n2982_13878.t73 a_n2982_8322.t25 vdd.t199 sky130_fd_pr__pfet_01v8 ad=1.485 pd=9.33 as=1.485 ps=9.33 w=9 l=0.5
X70 gnd.t150 gnd.t147 gnd.t149 gnd.t148 sky130_fd_pr__nfet_01v8 ad=2.73 pd=14.78 as=0 ps=0 w=7 l=1
X71 diffpairibias.t17 diffpairibias.t16 gnd.t30 gnd.t29 sky130_fd_pr__nfet_01v8 ad=2.73 pd=14.78 as=2.73 ps=14.78 w=7 l=1
X72 gnd.t68 commonsourceibias.t58 commonsourceibias.t59 gnd.t67 sky130_fd_pr__nfet_01v8 ad=1.155 pd=7.33 as=1.155 ps=7.33 w=7 l=1
X73 CSoutput.t67 a_n8300_8799.t57 vdd.t25 vdd.t24 sky130_fd_pr__pfet_01v8 ad=1.32 pd=8.33 as=1.32 ps=8.33 w=8 l=0.5
X74 a_n8300_8799.t31 a_n2982_13878.t74 a_n2982_8322.t24 vdd.t214 sky130_fd_pr__pfet_01v8 ad=1.485 pd=9.33 as=1.485 ps=9.33 w=9 l=0.5
X75 CSoutput.t126 commonsourceibias.t89 gnd.t259 gnd.t258 sky130_fd_pr__nfet_01v8 ad=1.155 pd=7.33 as=1.155 ps=7.33 w=7 l=1
X76 a_n2982_8322.t23 a_n2982_13878.t75 a_n8300_8799.t21 vdd.t222 sky130_fd_pr__pfet_01v8 ad=1.485 pd=9.33 as=1.485 ps=9.33 w=9 l=0.5
X77 CSoutput.t121 commonsourceibias.t90 gnd.t234 gnd.t203 sky130_fd_pr__nfet_01v8 ad=1.155 pd=7.33 as=1.155 ps=7.33 w=7 l=1
X78 vdd.t153 vdd.t151 vdd.t152 vdd.t118 sky130_fd_pr__pfet_01v8 ad=3.12 pd=16.78 as=0 ps=0 w=8 l=0.5
X79 CSoutput.t66 a_n8300_8799.t58 vdd.t30 vdd.t29 sky130_fd_pr__pfet_01v8 ad=1.32 pd=8.33 as=1.32 ps=8.33 w=8 l=0.5
X80 gnd.t333 commonsourceibias.t56 commonsourceibias.t57 gnd.t185 sky130_fd_pr__nfet_01v8 ad=1.155 pd=7.33 as=1.155 ps=7.33 w=7 l=1
X81 vdd.t7 CSoutput.t155 output.t16 gnd.t323 sky130_fd_pr__nfet_01v8 ad=0.825 pd=5.33 as=0.825 ps=5.33 w=5 l=1
X82 CSoutput.t122 commonsourceibias.t91 gnd.t235 gnd.t31 sky130_fd_pr__nfet_01v8 ad=1.155 pd=7.33 as=1.155 ps=7.33 w=7 l=1
X83 CSoutput.t89 commonsourceibias.t92 gnd.t53 gnd.t21 sky130_fd_pr__nfet_01v8 ad=1.155 pd=7.33 as=1.155 ps=7.33 w=7 l=1
X84 a_n8300_8799.t11 plus.t9 a_n3827_n3924.t34 gnd.t217 sky130_fd_pr__nfet_01v8 ad=1.155 pd=7.33 as=1.155 ps=7.33 w=7 l=0.5
X85 CSoutput.t90 commonsourceibias.t93 gnd.t54 gnd.t34 sky130_fd_pr__nfet_01v8 ad=1.155 pd=7.33 as=1.155 ps=7.33 w=7 l=1
X86 CSoutput.t119 commonsourceibias.t94 gnd.t232 gnd.t231 sky130_fd_pr__nfet_01v8 ad=1.155 pd=7.33 as=1.155 ps=7.33 w=7 l=1
X87 a_n3827_n3924.t16 diffpairibias.t22 gnd.t24 gnd.t23 sky130_fd_pr__nfet_01v8 ad=2.73 pd=14.78 as=2.73 ps=14.78 w=7 l=1
X88 vdd.t32 a_n8300_8799.t59 CSoutput.t65 vdd.t31 sky130_fd_pr__pfet_01v8 ad=1.32 pd=8.33 as=1.32 ps=8.33 w=8 l=0.5
X89 a_n3827_n3924.t23 minus.t9 a_n2982_13878.t9 gnd.t207 sky130_fd_pr__nfet_01v8 ad=1.155 pd=7.33 as=1.155 ps=7.33 w=7 l=0.5
X90 vdd.t242 a_n8300_8799.t60 CSoutput.t64 vdd.t235 sky130_fd_pr__pfet_01v8 ad=1.32 pd=8.33 as=1.32 ps=8.33 w=8 l=0.5
X91 a_n2982_13878.t60 a_n2982_13878.t59 a_n2804_13878.t26 vdd.t221 sky130_fd_pr__pfet_01v8 ad=1.485 pd=9.33 as=1.485 ps=9.33 w=9 l=0.5
X92 vdd.t243 a_n8300_8799.t61 CSoutput.t63 vdd.t165 sky130_fd_pr__pfet_01v8 ad=1.32 pd=8.33 as=1.32 ps=8.33 w=8 l=0.5
X93 output.t15 CSoutput.t156 vdd.t8 gnd.t322 sky130_fd_pr__nfet_01v8 ad=1.95 pd=10.78 as=0.825 ps=5.33 w=5 l=1
X94 a_n8300_8799.t20 a_n2982_13878.t76 a_n2982_8322.t22 vdd.t210 sky130_fd_pr__pfet_01v8 ad=1.485 pd=9.33 as=1.485 ps=9.33 w=9 l=0.5
X95 a_n2982_13878.t52 a_n2982_13878.t51 a_n2804_13878.t25 vdd.t175 sky130_fd_pr__pfet_01v8 ad=3.51 pd=18.78 as=1.485 ps=9.33 w=9 l=0.5
X96 a_n2982_13878.t6 minus.t10 a_n3827_n3924.t7 gnd.t27 sky130_fd_pr__nfet_01v8 ad=1.155 pd=7.33 as=1.155 ps=7.33 w=7 l=0.5
X97 gnd.t260 commonsourceibias.t54 commonsourceibias.t55 gnd.t11 sky130_fd_pr__nfet_01v8 ad=1.155 pd=7.33 as=1.155 ps=7.33 w=7 l=1
X98 gnd.t334 commonsourceibias.t52 commonsourceibias.t53 gnd.t225 sky130_fd_pr__nfet_01v8 ad=1.155 pd=7.33 as=1.155 ps=7.33 w=7 l=1
X99 a_n3827_n3924.t31 plus.t10 a_n8300_8799.t9 gnd.t249 sky130_fd_pr__nfet_01v8 ad=1.155 pd=7.33 as=1.155 ps=7.33 w=7 l=0.5
X100 gnd.t335 commonsourceibias.t50 commonsourceibias.t51 gnd.t191 sky130_fd_pr__nfet_01v8 ad=1.155 pd=7.33 as=1.155 ps=7.33 w=7 l=1
X101 output.t3 outputibias.t8 gnd.t308 gnd.t307 sky130_fd_pr__nfet_01v8 ad=2.34 pd=12.78 as=2.34 ps=12.78 w=6 l=2
X102 CSoutput.t157 a_n2982_8322.t5 sky130_fd_pr__cap_mim_m3_1 l=12 w=12
X103 gnd.t146 gnd.t143 gnd.t145 gnd.t144 sky130_fd_pr__nfet_01v8 ad=2.34 pd=12.78 as=0 ps=0 w=6 l=2
X104 diffpairibias.t15 diffpairibias.t14 gnd.t216 gnd.t215 sky130_fd_pr__nfet_01v8 ad=2.73 pd=14.78 as=2.73 ps=14.78 w=7 l=1
X105 a_n3827_n3924.t2 minus.t11 a_n2982_13878.t2 gnd.t2 sky130_fd_pr__nfet_01v8 ad=2.73 pd=14.78 as=1.155 ps=7.33 w=7 l=0.5
X106 output.t2 outputibias.t9 gnd.t306 gnd.t305 sky130_fd_pr__nfet_01v8 ad=2.34 pd=12.78 as=2.34 ps=12.78 w=6 l=2
X107 vdd.t150 vdd.t148 vdd.t149 vdd.t138 sky130_fd_pr__pfet_01v8 ad=3.51 pd=18.78 as=0 ps=0 w=9 l=0.5
X108 CSoutput.t62 a_n8300_8799.t62 vdd.t240 vdd.t24 sky130_fd_pr__pfet_01v8 ad=1.32 pd=8.33 as=1.32 ps=8.33 w=8 l=0.5
X109 gnd.t233 commonsourceibias.t95 CSoutput.t120 gnd.t73 sky130_fd_pr__nfet_01v8 ad=1.155 pd=7.33 as=1.155 ps=7.33 w=7 l=1
X110 vdd.t147 vdd.t144 vdd.t146 vdd.t145 sky130_fd_pr__pfet_01v8 ad=3.51 pd=18.78 as=0 ps=0 w=9 l=0.5
X111 gnd.t205 commonsourceibias.t96 CSoutput.t109 gnd.t5 sky130_fd_pr__nfet_01v8 ad=1.155 pd=7.33 as=1.155 ps=7.33 w=7 l=1
X112 gnd.t206 commonsourceibias.t97 CSoutput.t110 gnd.t67 sky130_fd_pr__nfet_01v8 ad=1.155 pd=7.33 as=1.155 ps=7.33 w=7 l=1
X113 gnd.t16 commonsourceibias.t98 CSoutput.t4 gnd.t15 sky130_fd_pr__nfet_01v8 ad=1.155 pd=7.33 as=1.155 ps=7.33 w=7 l=1
X114 a_n2804_13878.t24 a_n2982_13878.t57 a_n2982_13878.t58 vdd.t185 sky130_fd_pr__pfet_01v8 ad=1.485 pd=9.33 as=3.51 ps=18.78 w=9 l=0.5
X115 CSoutput.t61 a_n8300_8799.t63 vdd.t241 vdd.t10 sky130_fd_pr__pfet_01v8 ad=1.32 pd=8.33 as=1.32 ps=8.33 w=8 l=0.5
X116 gnd.t18 commonsourceibias.t99 CSoutput.t5 gnd.t17 sky130_fd_pr__nfet_01v8 ad=1.155 pd=7.33 as=1.155 ps=7.33 w=7 l=1
X117 output.t14 CSoutput.t158 vdd.t71 gnd.t321 sky130_fd_pr__nfet_01v8 ad=0.825 pd=5.33 as=0.825 ps=5.33 w=5 l=1
X118 vdd.t238 a_n8300_8799.t64 CSoutput.t60 vdd.t235 sky130_fd_pr__pfet_01v8 ad=1.32 pd=8.33 as=1.32 ps=8.33 w=8 l=0.5
X119 vdd.t72 CSoutput.t159 output.t13 gnd.t320 sky130_fd_pr__nfet_01v8 ad=0.825 pd=5.33 as=1.95 ps=10.78 w=5 l=1
X120 vdd.t220 a_n2982_13878.t77 a_n2982_8322.t37 vdd.t219 sky130_fd_pr__pfet_01v8 ad=1.485 pd=9.33 as=1.485 ps=9.33 w=9 l=0.5
X121 a_n2982_13878.t40 a_n2982_13878.t39 a_n2804_13878.t23 vdd.t183 sky130_fd_pr__pfet_01v8 ad=1.485 pd=9.33 as=1.485 ps=9.33 w=9 l=0.5
X122 gnd.t50 commonsourceibias.t100 CSoutput.t87 gnd.t7 sky130_fd_pr__nfet_01v8 ad=2.73 pd=14.78 as=1.155 ps=7.33 w=7 l=1
X123 vdd.t143 vdd.t141 vdd.t142 vdd.t118 sky130_fd_pr__pfet_01v8 ad=3.12 pd=16.78 as=0 ps=0 w=8 l=0.5
X124 gnd.t142 gnd.t140 gnd.t141 gnd.t97 sky130_fd_pr__nfet_01v8 ad=2.73 pd=14.78 as=0 ps=0 w=7 l=1
X125 a_n2982_8322.t36 a_n2982_13878.t78 vdd.t218 vdd.t217 sky130_fd_pr__pfet_01v8 ad=1.485 pd=9.33 as=1.485 ps=9.33 w=9 l=0.5
X126 a_n3827_n3924.t15 diffpairibias.t23 gnd.t245 gnd.t244 sky130_fd_pr__nfet_01v8 ad=2.73 pd=14.78 as=2.73 ps=14.78 w=7 l=1
X127 CSoutput.t59 a_n8300_8799.t65 vdd.t239 vdd.t29 sky130_fd_pr__pfet_01v8 ad=1.32 pd=8.33 as=1.32 ps=8.33 w=8 l=0.5
X128 a_n2982_13878.t8 minus.t12 a_n3827_n3924.t19 gnd.t71 sky130_fd_pr__nfet_01v8 ad=1.155 pd=7.33 as=1.155 ps=7.33 w=7 l=0.5
X129 CSoutput.t88 commonsourceibias.t101 gnd.t52 gnd.t51 sky130_fd_pr__nfet_01v8 ad=1.155 pd=7.33 as=2.73 ps=14.78 w=7 l=1
X130 gnd.t332 commonsourceibias.t48 commonsourceibias.t49 gnd.t195 sky130_fd_pr__nfet_01v8 ad=1.155 pd=7.33 as=1.155 ps=7.33 w=7 l=1
X131 a_n3827_n3924.t20 plus.t11 a_n8300_8799.t1 gnd.t76 sky130_fd_pr__nfet_01v8 ad=1.155 pd=7.33 as=1.155 ps=7.33 w=7 l=0.5
X132 vdd.t216 a_n2982_13878.t79 a_n2804_13878.t6 vdd.t215 sky130_fd_pr__pfet_01v8 ad=1.485 pd=9.33 as=1.485 ps=9.33 w=9 l=0.5
X133 gnd.t202 commonsourceibias.t102 CSoutput.t107 gnd.t201 sky130_fd_pr__nfet_01v8 ad=1.155 pd=7.33 as=1.155 ps=7.33 w=7 l=1
X134 vdd.t140 vdd.t137 vdd.t139 vdd.t138 sky130_fd_pr__pfet_01v8 ad=3.51 pd=18.78 as=0 ps=0 w=9 l=0.5
X135 a_n2804_13878.t22 a_n2982_13878.t55 a_n2982_13878.t56 vdd.t214 sky130_fd_pr__pfet_01v8 ad=1.485 pd=9.33 as=1.485 ps=9.33 w=9 l=0.5
X136 vdd.t236 a_n8300_8799.t66 CSoutput.t58 vdd.t235 sky130_fd_pr__pfet_01v8 ad=1.32 pd=8.33 as=1.32 ps=8.33 w=8 l=0.5
X137 vdd.t237 a_n8300_8799.t67 CSoutput.t57 vdd.t165 sky130_fd_pr__pfet_01v8 ad=1.32 pd=8.33 as=1.32 ps=8.33 w=8 l=0.5
X138 a_n2982_8322.t21 a_n2982_13878.t80 a_n8300_8799.t26 vdd.t200 sky130_fd_pr__pfet_01v8 ad=1.485 pd=9.33 as=1.485 ps=9.33 w=9 l=0.5
X139 gnd.t336 commonsourceibias.t46 commonsourceibias.t47 gnd.t17 sky130_fd_pr__nfet_01v8 ad=1.155 pd=7.33 as=1.155 ps=7.33 w=7 l=1
X140 a_n8300_8799.t5 plus.t12 a_n3827_n3924.t25 gnd.t0 sky130_fd_pr__nfet_01v8 ad=1.155 pd=7.33 as=2.73 ps=14.78 w=7 l=0.5
X141 vdd.t136 vdd.t134 vdd.t135 vdd.t100 sky130_fd_pr__pfet_01v8 ad=3.12 pd=16.78 as=0 ps=0 w=8 l=0.5
X142 vdd.t133 vdd.t130 vdd.t132 vdd.t131 sky130_fd_pr__pfet_01v8 ad=3.51 pd=18.78 as=0 ps=0 w=9 l=0.5
X143 a_n2982_8322.t35 a_n2982_13878.t81 vdd.t213 vdd.t212 sky130_fd_pr__pfet_01v8 ad=3.51 pd=18.78 as=1.485 ps=9.33 w=9 l=0.5
X144 a_n2982_13878.t18 minus.t13 a_n3827_n3924.t43 gnd.t327 sky130_fd_pr__nfet_01v8 ad=1.155 pd=7.33 as=1.155 ps=7.33 w=7 l=0.5
X145 a_n8300_8799.t15 a_n2982_13878.t82 a_n2982_8322.t20 vdd.t182 sky130_fd_pr__pfet_01v8 ad=1.485 pd=9.33 as=1.485 ps=9.33 w=9 l=0.5
X146 CSoutput.t56 a_n8300_8799.t68 vdd.t167 vdd.t58 sky130_fd_pr__pfet_01v8 ad=1.32 pd=8.33 as=1.32 ps=8.33 w=8 l=0.5
X147 diffpairibias.t13 diffpairibias.t12 gnd.t247 gnd.t246 sky130_fd_pr__nfet_01v8 ad=2.73 pd=14.78 as=2.73 ps=14.78 w=7 l=1
X148 CSoutput.t160 a_n2982_8322.t4 sky130_fd_pr__cap_mim_m3_1 l=12 w=12
X149 vdd.t168 a_n8300_8799.t69 CSoutput.t55 vdd.t22 sky130_fd_pr__pfet_01v8 ad=1.32 pd=8.33 as=1.32 ps=8.33 w=8 l=0.5
X150 CSoutput.t108 commonsourceibias.t103 gnd.t204 gnd.t203 sky130_fd_pr__nfet_01v8 ad=1.155 pd=7.33 as=1.155 ps=7.33 w=7 l=1
X151 a_n2982_13878.t54 a_n2982_13878.t53 a_n2804_13878.t21 vdd.t192 sky130_fd_pr__pfet_01v8 ad=1.485 pd=9.33 as=1.485 ps=9.33 w=9 l=0.5
X152 a_n8300_8799.t23 a_n2982_13878.t83 a_n2982_8322.t19 vdd.t211 sky130_fd_pr__pfet_01v8 ad=1.485 pd=9.33 as=1.485 ps=9.33 w=9 l=0.5
X153 CSoutput.t7 commonsourceibias.t104 gnd.t32 gnd.t31 sky130_fd_pr__nfet_01v8 ad=1.155 pd=7.33 as=1.155 ps=7.33 w=7 l=1
X154 commonsourceibias.t45 commonsourceibias.t44 gnd.t337 gnd.t258 sky130_fd_pr__nfet_01v8 ad=1.155 pd=7.33 as=1.155 ps=7.33 w=7 l=1
X155 CSoutput.t8 commonsourceibias.t105 gnd.t33 gnd.t21 sky130_fd_pr__nfet_01v8 ad=1.155 pd=7.33 as=1.155 ps=7.33 w=7 l=1
X156 a_n2804_13878.t20 a_n2982_13878.t47 a_n2982_13878.t48 vdd.t210 sky130_fd_pr__pfet_01v8 ad=1.485 pd=9.33 as=1.485 ps=9.33 w=9 l=0.5
X157 gnd.t62 commonsourceibias.t106 CSoutput.t92 gnd.t61 sky130_fd_pr__nfet_01v8 ad=2.73 pd=14.78 as=1.155 ps=7.33 w=7 l=1
X158 CSoutput.t93 commonsourceibias.t107 gnd.t63 gnd.t34 sky130_fd_pr__nfet_01v8 ad=1.155 pd=7.33 as=1.155 ps=7.33 w=7 l=1
X159 vdd.t73 CSoutput.t161 output.t12 gnd.t319 sky130_fd_pr__nfet_01v8 ad=0.825 pd=5.33 as=0.825 ps=5.33 w=5 l=1
X160 plus.t2 gnd.t137 gnd.t139 gnd.t138 sky130_fd_pr__nfet_01v8 ad=0.165 pd=1.33 as=0.165 ps=1.33 w=1 l=0.5
X161 CSoutput.t85 commonsourceibias.t108 gnd.t47 gnd.t46 sky130_fd_pr__nfet_01v8 ad=1.155 pd=7.33 as=1.155 ps=7.33 w=7 l=1
X162 gnd.t136 gnd.t134 minus.t2 gnd.t135 sky130_fd_pr__nfet_01v8 ad=0.39 pd=2.78 as=0.165 ps=1.33 w=1 l=0.5
X163 vdd.t129 vdd.t127 vdd.t128 vdd.t86 sky130_fd_pr__pfet_01v8 ad=3.51 pd=18.78 as=0 ps=0 w=9 l=0.5
X164 gnd.t49 commonsourceibias.t109 CSoutput.t86 gnd.t48 sky130_fd_pr__nfet_01v8 ad=1.155 pd=7.33 as=1.155 ps=7.33 w=7 l=1
X165 CSoutput.t54 a_n8300_8799.t70 vdd.t231 vdd.t26 sky130_fd_pr__pfet_01v8 ad=1.32 pd=8.33 as=1.32 ps=8.33 w=8 l=0.5
X166 gnd.t338 commonsourceibias.t42 commonsourceibias.t43 gnd.t187 sky130_fd_pr__nfet_01v8 ad=1.155 pd=7.33 as=1.155 ps=7.33 w=7 l=1
X167 a_n2982_13878.t4 minus.t14 a_n3827_n3924.t4 gnd.t4 sky130_fd_pr__nfet_01v8 ad=1.155 pd=7.33 as=1.155 ps=7.33 w=7 l=0.5
X168 vdd.t209 a_n2982_13878.t84 a_n2982_8322.t34 vdd.t208 sky130_fd_pr__pfet_01v8 ad=1.485 pd=9.33 as=3.51 ps=18.78 w=9 l=0.5
X169 a_n2804_13878.t19 a_n2982_13878.t63 a_n2982_13878.t64 vdd.t207 sky130_fd_pr__pfet_01v8 ad=1.485 pd=9.33 as=1.485 ps=9.33 w=9 l=0.5
X170 gnd.t12 commonsourceibias.t110 CSoutput.t2 gnd.t11 sky130_fd_pr__nfet_01v8 ad=1.155 pd=7.33 as=1.155 ps=7.33 w=7 l=1
X171 vdd.t232 a_n8300_8799.t71 CSoutput.t53 vdd.t68 sky130_fd_pr__pfet_01v8 ad=1.32 pd=8.33 as=1.32 ps=8.33 w=8 l=0.5
X172 commonsourceibias.t41 commonsourceibias.t40 gnd.t236 gnd.t38 sky130_fd_pr__nfet_01v8 ad=1.155 pd=7.33 as=1.155 ps=7.33 w=7 l=1
X173 a_n2982_13878.t22 a_n2982_13878.t21 a_n2804_13878.t18 vdd.t179 sky130_fd_pr__pfet_01v8 ad=1.485 pd=9.33 as=1.485 ps=9.33 w=9 l=0.5
X174 gnd.t237 commonsourceibias.t38 commonsourceibias.t39 gnd.t201 sky130_fd_pr__nfet_01v8 ad=1.155 pd=7.33 as=1.155 ps=7.33 w=7 l=1
X175 vdd.t162 a_n8300_8799.t72 CSoutput.t52 vdd.t56 sky130_fd_pr__pfet_01v8 ad=1.32 pd=8.33 as=1.32 ps=8.33 w=8 l=0.5
X176 gnd.t238 commonsourceibias.t36 commonsourceibias.t37 gnd.t48 sky130_fd_pr__nfet_01v8 ad=1.155 pd=7.33 as=1.155 ps=7.33 w=7 l=1
X177 a_n3827_n3924.t14 diffpairibias.t24 gnd.t70 gnd.t69 sky130_fd_pr__nfet_01v8 ad=2.73 pd=14.78 as=2.73 ps=14.78 w=7 l=1
X178 commonsourceibias.t35 commonsourceibias.t34 gnd.t239 gnd.t231 sky130_fd_pr__nfet_01v8 ad=1.155 pd=7.33 as=1.155 ps=7.33 w=7 l=1
X179 a_n3827_n3924.t13 diffpairibias.t25 gnd.t354 gnd.t353 sky130_fd_pr__nfet_01v8 ad=2.73 pd=14.78 as=2.73 ps=14.78 w=7 l=1
X180 gnd.t14 commonsourceibias.t111 CSoutput.t3 gnd.t13 sky130_fd_pr__nfet_01v8 ad=1.155 pd=7.33 as=1.155 ps=7.33 w=7 l=1
X181 a_n2982_13878.t5 minus.t15 a_n3827_n3924.t6 gnd.t26 sky130_fd_pr__nfet_01v8 ad=1.155 pd=7.33 as=1.155 ps=7.33 w=7 l=0.5
X182 vdd.t163 a_n8300_8799.t73 CSoutput.t51 vdd.t31 sky130_fd_pr__pfet_01v8 ad=1.32 pd=8.33 as=1.32 ps=8.33 w=8 l=0.5
X183 gnd.t74 commonsourceibias.t112 CSoutput.t95 gnd.t73 sky130_fd_pr__nfet_01v8 ad=1.155 pd=7.33 as=1.155 ps=7.33 w=7 l=1
X184 gnd.t75 commonsourceibias.t113 CSoutput.t96 gnd.t67 sky130_fd_pr__nfet_01v8 ad=1.155 pd=7.33 as=1.155 ps=7.33 w=7 l=1
X185 gnd.t6 commonsourceibias.t114 CSoutput.t0 gnd.t5 sky130_fd_pr__nfet_01v8 ad=1.155 pd=7.33 as=1.155 ps=7.33 w=7 l=1
X186 gnd.t133 gnd.t131 minus.t1 gnd.t132 sky130_fd_pr__nfet_01v8 ad=0.165 pd=1.33 as=0.39 ps=2.78 w=1 l=0.5
X187 vdd.t126 vdd.t124 vdd.t125 vdd.t100 sky130_fd_pr__pfet_01v8 ad=3.12 pd=16.78 as=0 ps=0 w=8 l=0.5
X188 gnd.t8 commonsourceibias.t115 CSoutput.t1 gnd.t7 sky130_fd_pr__nfet_01v8 ad=2.73 pd=14.78 as=1.155 ps=7.33 w=7 l=1
X189 a_n2804_13878.t17 a_n2982_13878.t19 a_n2982_13878.t20 vdd.t184 sky130_fd_pr__pfet_01v8 ad=1.485 pd=9.33 as=1.485 ps=9.33 w=9 l=0.5
X190 CSoutput.t162 a_n2982_8322.t3 sky130_fd_pr__cap_mim_m3_1 l=12 w=12
X191 CSoutput.t144 commonsourceibias.t116 gnd.t346 gnd.t36 sky130_fd_pr__nfet_01v8 ad=1.155 pd=7.33 as=1.155 ps=7.33 w=7 l=1
X192 a_n2982_8322.t18 a_n2982_13878.t85 a_n8300_8799.t29 vdd.t206 sky130_fd_pr__pfet_01v8 ad=1.485 pd=9.33 as=1.485 ps=9.33 w=9 l=0.5
X193 gnd.t130 gnd.t128 gnd.t129 gnd.t85 sky130_fd_pr__nfet_01v8 ad=2.73 pd=14.78 as=0 ps=0 w=7 l=0.5
X194 CSoutput.t50 a_n8300_8799.t74 vdd.t233 vdd.t0 sky130_fd_pr__pfet_01v8 ad=1.32 pd=8.33 as=1.32 ps=8.33 w=8 l=0.5
X195 commonsourceibias.t33 commonsourceibias.t32 gnd.t281 gnd.t279 sky130_fd_pr__nfet_01v8 ad=1.155 pd=7.33 as=1.155 ps=7.33 w=7 l=1
X196 CSoutput.t145 commonsourceibias.t117 gnd.t347 gnd.t51 sky130_fd_pr__nfet_01v8 ad=1.155 pd=7.33 as=2.73 ps=14.78 w=7 l=1
X197 a_n2982_13878.t1 minus.t16 a_n3827_n3924.t1 gnd.t1 sky130_fd_pr__nfet_01v8 ad=1.155 pd=7.33 as=1.155 ps=7.33 w=7 l=0.5
X198 CSoutput.t163 a_n2982_8322.t2 sky130_fd_pr__cap_mim_m3_1 l=12 w=12
X199 gnd.t355 commonsourceibias.t118 CSoutput.t148 gnd.t55 sky130_fd_pr__nfet_01v8 ad=1.155 pd=7.33 as=1.155 ps=7.33 w=7 l=1
X200 CSoutput.t149 commonsourceibias.t119 gnd.t356 gnd.t44 sky130_fd_pr__nfet_01v8 ad=1.155 pd=7.33 as=1.155 ps=7.33 w=7 l=1
X201 gnd.t127 gnd.t125 gnd.t126 gnd.t81 sky130_fd_pr__nfet_01v8 ad=2.73 pd=14.78 as=0 ps=0 w=7 l=1
X202 diffpairibias.t11 diffpairibias.t10 gnd.t251 gnd.t250 sky130_fd_pr__nfet_01v8 ad=2.73 pd=14.78 as=2.73 ps=14.78 w=7 l=1
X203 a_n2804_13878.t5 a_n2982_13878.t86 vdd.t205 vdd.t204 sky130_fd_pr__pfet_01v8 ad=1.485 pd=9.33 as=1.485 ps=9.33 w=9 l=0.5
X204 gnd.t269 commonsourceibias.t120 CSoutput.t129 gnd.t201 sky130_fd_pr__nfet_01v8 ad=1.155 pd=7.33 as=1.155 ps=7.33 w=7 l=1
X205 vdd.t203 a_n2982_13878.t87 a_n2804_13878.t4 vdd.t202 sky130_fd_pr__pfet_01v8 ad=1.485 pd=9.33 as=1.485 ps=9.33 w=9 l=0.5
X206 output.t1 outputibias.t10 gnd.t304 gnd.t303 sky130_fd_pr__nfet_01v8 ad=2.34 pd=12.78 as=2.34 ps=12.78 w=6 l=2
X207 gnd.t282 commonsourceibias.t30 commonsourceibias.t31 gnd.t13 sky130_fd_pr__nfet_01v8 ad=1.155 pd=7.33 as=1.155 ps=7.33 w=7 l=1
X208 CSoutput.t49 a_n8300_8799.t75 vdd.t234 vdd.t26 sky130_fd_pr__pfet_01v8 ad=1.32 pd=8.33 as=1.32 ps=8.33 w=8 l=0.5
X209 gnd.t240 commonsourceibias.t28 commonsourceibias.t29 gnd.t61 sky130_fd_pr__nfet_01v8 ad=2.73 pd=14.78 as=1.155 ps=7.33 w=7 l=1
X210 a_n3827_n3924.t47 plus.t13 a_n8300_8799.t41 gnd.t345 sky130_fd_pr__nfet_01v8 ad=1.155 pd=7.33 as=1.155 ps=7.33 w=7 l=0.5
X211 vdd.t164 a_n8300_8799.t76 CSoutput.t48 vdd.t68 sky130_fd_pr__pfet_01v8 ad=1.32 pd=8.33 as=1.32 ps=8.33 w=8 l=0.5
X212 commonsourceibias.t27 commonsourceibias.t26 gnd.t208 gnd.t46 sky130_fd_pr__nfet_01v8 ad=1.155 pd=7.33 as=1.155 ps=7.33 w=7 l=1
X213 vdd.t166 a_n8300_8799.t77 CSoutput.t47 vdd.t165 sky130_fd_pr__pfet_01v8 ad=1.32 pd=8.33 as=1.32 ps=8.33 w=8 l=0.5
X214 CSoutput.t130 commonsourceibias.t121 gnd.t270 gnd.t42 sky130_fd_pr__nfet_01v8 ad=1.155 pd=7.33 as=1.155 ps=7.33 w=7 l=1
X215 CSoutput.t46 a_n8300_8799.t78 vdd.t229 vdd.t39 sky130_fd_pr__pfet_01v8 ad=1.32 pd=8.33 as=1.32 ps=8.33 w=8 l=0.5
X216 a_n3827_n3924.t41 minus.t17 a_n2982_13878.t16 gnd.t214 sky130_fd_pr__nfet_01v8 ad=1.155 pd=7.33 as=1.155 ps=7.33 w=7 l=0.5
X217 a_n2804_13878.t16 a_n2982_13878.t33 a_n2982_13878.t34 vdd.t201 sky130_fd_pr__pfet_01v8 ad=1.485 pd=9.33 as=1.485 ps=9.33 w=9 l=0.5
X218 diffpairibias.t9 diffpairibias.t8 gnd.t352 gnd.t351 sky130_fd_pr__nfet_01v8 ad=2.73 pd=14.78 as=2.73 ps=14.78 w=7 l=1
X219 a_n3827_n3924.t30 plus.t14 a_n8300_8799.t8 gnd.t248 sky130_fd_pr__nfet_01v8 ad=1.155 pd=7.33 as=1.155 ps=7.33 w=7 l=0.5
X220 a_n3827_n3924.t38 minus.t18 a_n2982_13878.t14 gnd.t25 sky130_fd_pr__nfet_01v8 ad=2.73 pd=14.78 as=1.155 ps=7.33 w=7 l=0.5
X221 a_n8300_8799.t2 plus.t15 a_n3827_n3924.t21 gnd.t184 sky130_fd_pr__nfet_01v8 ad=1.155 pd=7.33 as=2.73 ps=14.78 w=7 l=0.5
X222 vdd.t230 a_n8300_8799.t79 CSoutput.t45 vdd.t56 sky130_fd_pr__pfet_01v8 ad=1.32 pd=8.33 as=1.32 ps=8.33 w=8 l=0.5
X223 gnd.t273 commonsourceibias.t24 commonsourceibias.t25 gnd.t15 sky130_fd_pr__nfet_01v8 ad=1.155 pd=7.33 as=1.155 ps=7.33 w=7 l=1
X224 CSoutput.t117 commonsourceibias.t122 gnd.t229 gnd.t9 sky130_fd_pr__nfet_01v8 ad=1.155 pd=7.33 as=2.73 ps=14.78 w=7 l=1
X225 a_n2982_8322.t17 a_n2982_13878.t88 a_n8300_8799.t18 vdd.t169 sky130_fd_pr__pfet_01v8 ad=1.485 pd=9.33 as=1.485 ps=9.33 w=9 l=0.5
X226 CSoutput.t44 a_n8300_8799.t80 vdd.t160 vdd.t14 sky130_fd_pr__pfet_01v8 ad=1.32 pd=8.33 as=3.12 ps=16.78 w=8 l=0.5
X227 a_n2982_13878.t30 a_n2982_13878.t29 a_n2804_13878.t15 vdd.t200 sky130_fd_pr__pfet_01v8 ad=1.485 pd=9.33 as=1.485 ps=9.33 w=9 l=0.5
X228 diffpairibias.t7 diffpairibias.t6 gnd.t221 gnd.t220 sky130_fd_pr__nfet_01v8 ad=2.73 pd=14.78 as=2.73 ps=14.78 w=7 l=1
X229 vdd.t161 a_n8300_8799.t81 CSoutput.t43 vdd.t49 sky130_fd_pr__pfet_01v8 ad=3.12 pd=16.78 as=1.32 ps=8.33 w=8 l=0.5
X230 a_n2804_13878.t14 a_n2982_13878.t49 a_n2982_13878.t50 vdd.t199 sky130_fd_pr__pfet_01v8 ad=1.485 pd=9.33 as=1.485 ps=9.33 w=9 l=0.5
X231 gnd.t230 commonsourceibias.t123 CSoutput.t118 gnd.t61 sky130_fd_pr__nfet_01v8 ad=2.73 pd=14.78 as=1.155 ps=7.33 w=7 l=1
X232 vdd.t123 vdd.t121 vdd.t122 vdd.t104 sky130_fd_pr__pfet_01v8 ad=3.12 pd=16.78 as=0 ps=0 w=8 l=0.5
X233 vdd.t198 a_n2982_13878.t89 a_n2982_8322.t33 vdd.t197 sky130_fd_pr__pfet_01v8 ad=1.485 pd=9.33 as=3.51 ps=18.78 w=9 l=0.5
X234 vdd.t42 a_n8300_8799.t82 CSoutput.t42 vdd.t31 sky130_fd_pr__pfet_01v8 ad=1.32 pd=8.33 as=1.32 ps=8.33 w=8 l=0.5
X235 vdd.t74 CSoutput.t164 output.t11 gnd.t318 sky130_fd_pr__nfet_01v8 ad=0.825 pd=5.33 as=0.825 ps=5.33 w=5 l=1
X236 CSoutput.t115 commonsourceibias.t124 gnd.t227 gnd.t65 sky130_fd_pr__nfet_01v8 ad=1.155 pd=7.33 as=1.155 ps=7.33 w=7 l=1
X237 CSoutput.t116 commonsourceibias.t125 gnd.t228 gnd.t46 sky130_fd_pr__nfet_01v8 ad=1.155 pd=7.33 as=1.155 ps=7.33 w=7 l=1
X238 gnd.t124 gnd.t121 gnd.t123 gnd.t122 sky130_fd_pr__nfet_01v8 ad=2.34 pd=12.78 as=0 ps=0 w=6 l=2
X239 gnd.t199 commonsourceibias.t126 CSoutput.t105 gnd.t48 sky130_fd_pr__nfet_01v8 ad=1.155 pd=7.33 as=1.155 ps=7.33 w=7 l=1
X240 CSoutput.t41 a_n8300_8799.t83 vdd.t44 vdd.t43 sky130_fd_pr__pfet_01v8 ad=1.32 pd=8.33 as=1.32 ps=8.33 w=8 l=0.5
X241 gnd.t120 gnd.t117 gnd.t119 gnd.t118 sky130_fd_pr__nfet_01v8 ad=2.73 pd=14.78 as=0 ps=0 w=7 l=1
X242 gnd.t200 commonsourceibias.t127 CSoutput.t106 gnd.t11 sky130_fd_pr__nfet_01v8 ad=1.155 pd=7.33 as=1.155 ps=7.33 w=7 l=1
X243 a_n2804_13878.t3 a_n2982_13878.t90 vdd.t196 vdd.t195 sky130_fd_pr__pfet_01v8 ad=3.51 pd=18.78 as=1.485 ps=9.33 w=9 l=0.5
X244 vdd.t120 vdd.t117 vdd.t119 vdd.t118 sky130_fd_pr__pfet_01v8 ad=3.12 pd=16.78 as=0 ps=0 w=8 l=0.5
X245 CSoutput.t111 commonsourceibias.t128 gnd.t211 gnd.t210 sky130_fd_pr__nfet_01v8 ad=1.155 pd=7.33 as=1.155 ps=7.33 w=7 l=1
X246 vdd.t116 vdd.t114 vdd.t115 vdd.t104 sky130_fd_pr__pfet_01v8 ad=3.12 pd=16.78 as=0 ps=0 w=8 l=0.5