* NGSPICE file created from opamp564.ext - technology: sky130A

.subckt opamp564 gnd CSoutput output vdd plus minus commonsourceibias outputibias
+ diffpairibias
X0 a_n2140_13878.t20 a_n2318_13878.t41 a_n2318_13878.t42 vdd.t247 sky130_fd_pr__pfet_01v8 ad=1.485 pd=9.33 as=1.485 ps=9.33 w=9 l=0.5
X1 CSoutput.t116 a_n7636_8799.t36 vdd.t115 vdd.t114 sky130_fd_pr__pfet_01v8 ad=1.32 pd=8.33 as=1.32 ps=8.33 w=8 l=0.5
X2 a_n2140_13878.t4 a_n2318_13878.t52 vdd.t258 vdd.t257 sky130_fd_pr__pfet_01v8 ad=1.485 pd=9.33 as=1.485 ps=9.33 w=9 l=0.5
X3 vdd.t263 a_n7636_8799.t37 CSoutput.t115 vdd.t17 sky130_fd_pr__pfet_01v8 ad=1.32 pd=8.33 as=1.32 ps=8.33 w=8 l=0.5
X4 a_n7636_8799.t6 plus.t5 a_n2903_n3924.t30 gnd.t71 sky130_fd_pr__nfet_01v8 ad=1.155 pd=7.33 as=1.155 ps=7.33 w=7 l=0.7
X5 CSoutput.t160 a_n2318_8322.t2 sky130_fd_pr__cap_mim_m3_1 l=12 w=12
X6 commonsourceibias.t63 commonsourceibias.t62 gnd.t167 gnd.t98 sky130_fd_pr__nfet_01v8 ad=1.155 pd=7.33 as=1.155 ps=7.33 w=7 l=1
X7 gnd.t175 commonsourceibias.t64 CSoutput.t150 gnd.t106 sky130_fd_pr__nfet_01v8 ad=1.155 pd=7.33 as=1.155 ps=7.33 w=7 l=1
X8 CSoutput.t114 a_n7636_8799.t38 vdd.t5 vdd.t4 sky130_fd_pr__pfet_01v8 ad=1.32 pd=8.33 as=1.32 ps=8.33 w=8 l=0.5
X9 gnd.t288 gnd.t286 plus.t1 gnd.t287 sky130_fd_pr__nfet_01v8 ad=0.165 pd=1.33 as=0.165 ps=1.33 w=1 l=0.5
X10 gnd.t176 commonsourceibias.t65 CSoutput.t151 gnd.t164 sky130_fd_pr__nfet_01v8 ad=1.155 pd=7.33 as=1.155 ps=7.33 w=7 l=1
X11 a_n2903_n3924.t29 plus.t6 a_n7636_8799.t8 gnd.t70 sky130_fd_pr__nfet_01v8 ad=1.155 pd=7.33 as=1.155 ps=7.33 w=7 l=0.7
X12 gnd.t285 gnd.t283 gnd.t284 gnd.t182 sky130_fd_pr__nfet_01v8 ad=2.73 pd=14.78 as=0 ps=0 w=7 l=1
X13 gnd.t75 commonsourceibias.t60 commonsourceibias.t61 gnd.t17 sky130_fd_pr__nfet_01v8 ad=1.155 pd=7.33 as=1.155 ps=7.33 w=7 l=1
X14 vdd.t101 vdd.t99 vdd.t100 vdd.t60 sky130_fd_pr__pfet_01v8 ad=3.12 pd=16.78 as=0 ps=0 w=8 l=0.5
X15 a_n2318_8322.t27 a_n2318_13878.t53 a_n7636_8799.t27 vdd.t256 sky130_fd_pr__pfet_01v8 ad=1.485 pd=9.33 as=1.485 ps=9.33 w=9 l=0.5
X16 gnd.t33 commonsourceibias.t66 CSoutput.t10 gnd.t17 sky130_fd_pr__nfet_01v8 ad=1.155 pd=7.33 as=1.155 ps=7.33 w=7 l=1
X17 a_n2903_n3924.t35 minus.t5 a_n2318_13878.t9 gnd.t64 sky130_fd_pr__nfet_01v8 ad=2.73 pd=14.78 as=1.155 ps=7.33 w=7 l=0.7
X18 output.t17 CSoutput.t161 vdd.t208 gnd.t143 sky130_fd_pr__nfet_01v8 ad=0.825 pd=5.33 as=0.825 ps=5.33 w=5 l=1
X19 CSoutput.t113 a_n7636_8799.t39 vdd.t22 vdd.t21 sky130_fd_pr__pfet_01v8 ad=1.32 pd=8.33 as=1.32 ps=8.33 w=8 l=0.5
X20 vdd.t130 a_n7636_8799.t40 CSoutput.t112 vdd.t129 sky130_fd_pr__pfet_01v8 ad=1.32 pd=8.33 as=1.32 ps=8.33 w=8 l=0.5
X21 gnd.t35 commonsourceibias.t67 CSoutput.t11 gnd.t34 sky130_fd_pr__nfet_01v8 ad=1.155 pd=7.33 as=1.155 ps=7.33 w=7 l=1
X22 a_n2318_13878.t8 minus.t6 a_n2903_n3924.t31 gnd.t63 sky130_fd_pr__nfet_01v8 ad=1.155 pd=7.33 as=1.155 ps=7.33 w=7 l=0.7
X23 a_n7636_8799.t15 a_n2318_13878.t54 a_n2318_8322.t26 vdd.t245 sky130_fd_pr__pfet_01v8 ad=1.485 pd=9.33 as=3.51 ps=18.78 w=9 l=0.5
X24 gnd.t122 commonsourceibias.t58 commonsourceibias.t59 gnd.t115 sky130_fd_pr__nfet_01v8 ad=1.155 pd=7.33 as=1.155 ps=7.33 w=7 l=1
X25 CSoutput.t111 a_n7636_8799.t41 vdd.t173 vdd.t0 sky130_fd_pr__pfet_01v8 ad=1.32 pd=8.33 as=1.32 ps=8.33 w=8 l=0.5
X26 vdd.t134 a_n7636_8799.t42 CSoutput.t110 vdd.t8 sky130_fd_pr__pfet_01v8 ad=1.32 pd=8.33 as=1.32 ps=8.33 w=8 l=0.5
X27 a_n2318_13878.t1 minus.t7 a_n2903_n3924.t3 gnd.t21 sky130_fd_pr__nfet_01v8 ad=1.155 pd=7.33 as=1.155 ps=7.33 w=7 l=0.7
X28 vdd.t175 a_n7636_8799.t43 CSoutput.t109 vdd.t122 sky130_fd_pr__pfet_01v8 ad=1.32 pd=8.33 as=1.32 ps=8.33 w=8 l=0.5
X29 a_n7636_8799.t16 a_n2318_13878.t55 a_n2318_8322.t25 vdd.t212 sky130_fd_pr__pfet_01v8 ad=1.485 pd=9.33 as=3.51 ps=18.78 w=9 l=0.5
X30 CSoutput.t162 a_n2318_8322.t3 sky130_fd_pr__cap_mim_m3_1 l=12 w=12
X31 output.t0 outputibias.t8 gnd.t88 gnd.t87 sky130_fd_pr__nfet_01v8 ad=2.34 pd=12.78 as=2.34 ps=12.78 w=6 l=2
X32 gnd.t282 gnd.t280 gnd.t281 gnd.t228 sky130_fd_pr__nfet_01v8 ad=2.73 pd=14.78 as=0 ps=0 w=7 l=1
X33 CSoutput.t8 commonsourceibias.t68 gnd.t28 gnd.t27 sky130_fd_pr__nfet_01v8 ad=1.155 pd=7.33 as=1.155 ps=7.33 w=7 l=1
X34 a_n2903_n3924.t10 minus.t8 a_n2318_13878.t7 gnd.t56 sky130_fd_pr__nfet_01v8 ad=2.73 pd=14.78 as=1.155 ps=7.33 w=7 l=0.7
X35 gnd.t117 commonsourceibias.t56 commonsourceibias.t57 gnd.t73 sky130_fd_pr__nfet_01v8 ad=1.155 pd=7.33 as=1.155 ps=7.33 w=7 l=1
X36 vdd.t98 vdd.t96 vdd.t97 vdd.t27 sky130_fd_pr__pfet_01v8 ad=3.51 pd=18.78 as=0 ps=0 w=9 l=0.5
X37 CSoutput.t108 a_n7636_8799.t44 vdd.t206 vdd.t114 sky130_fd_pr__pfet_01v8 ad=1.32 pd=8.33 as=1.32 ps=8.33 w=8 l=0.5
X38 output.t1 outputibias.t9 gnd.t94 gnd.t93 sky130_fd_pr__nfet_01v8 ad=2.34 pd=12.78 as=2.34 ps=12.78 w=6 l=2
X39 vdd.t176 CSoutput.t163 output.t16 gnd.t142 sky130_fd_pr__nfet_01v8 ad=0.825 pd=5.33 as=0.825 ps=5.33 w=5 l=1
X40 CSoutput.t107 a_n7636_8799.t45 vdd.t184 vdd.t12 sky130_fd_pr__pfet_01v8 ad=1.32 pd=8.33 as=3.12 ps=16.78 w=8 l=0.5
X41 CSoutput.t149 commonsourceibias.t69 gnd.t174 gnd.t112 sky130_fd_pr__nfet_01v8 ad=1.155 pd=7.33 as=1.155 ps=7.33 w=7 l=1
X42 a_n2903_n3924.t47 diffpairibias.t16 gnd.t309 gnd.t308 sky130_fd_pr__nfet_01v8 ad=2.73 pd=14.78 as=2.73 ps=14.78 w=7 l=1
X43 output.t19 outputibias.t10 gnd.t299 gnd.t298 sky130_fd_pr__nfet_01v8 ad=2.34 pd=12.78 as=2.34 ps=12.78 w=6 l=2
X44 CSoutput.t106 a_n7636_8799.t46 vdd.t25 vdd.t4 sky130_fd_pr__pfet_01v8 ad=1.32 pd=8.33 as=1.32 ps=8.33 w=8 l=0.5
X45 CSoutput.t147 commonsourceibias.t70 gnd.t166 gnd.t44 sky130_fd_pr__nfet_01v8 ad=1.155 pd=7.33 as=1.155 ps=7.33 w=7 l=1
X46 a_n2903_n3924.t28 plus.t7 a_n7636_8799.t33 gnd.t69 sky130_fd_pr__nfet_01v8 ad=1.155 pd=7.33 as=1.155 ps=7.33 w=7 l=0.7
X47 gnd.t168 commonsourceibias.t54 commonsourceibias.t55 gnd.t125 sky130_fd_pr__nfet_01v8 ad=2.73 pd=14.78 as=1.155 ps=7.33 w=7 l=1
X48 output.t15 CSoutput.t164 vdd.t177 gnd.t141 sky130_fd_pr__nfet_01v8 ad=1.95 pd=10.78 as=0.825 ps=5.33 w=5 l=1
X49 a_n2140_13878.t19 a_n2318_13878.t39 a_n2318_13878.t40 vdd.t220 sky130_fd_pr__pfet_01v8 ad=1.485 pd=9.33 as=1.485 ps=9.33 w=9 l=0.5
X50 a_n2318_13878.t44 a_n2318_13878.t43 a_n2140_13878.t18 vdd.t230 sky130_fd_pr__pfet_01v8 ad=1.485 pd=9.33 as=1.485 ps=9.33 w=9 l=0.5
X51 vdd.t95 vdd.t93 vdd.t94 vdd.t60 sky130_fd_pr__pfet_01v8 ad=3.12 pd=16.78 as=0 ps=0 w=8 l=0.5
X52 CSoutput.t129 commonsourceibias.t71 gnd.t99 gnd.t98 sky130_fd_pr__nfet_01v8 ad=1.155 pd=7.33 as=1.155 ps=7.33 w=7 l=1
X53 CSoutput.t105 a_n7636_8799.t47 vdd.t149 vdd.t21 sky130_fd_pr__pfet_01v8 ad=1.32 pd=8.33 as=1.32 ps=8.33 w=8 l=0.5
X54 a_n7636_8799.t10 plus.t8 a_n2903_n3924.t27 gnd.t68 sky130_fd_pr__nfet_01v8 ad=1.155 pd=7.33 as=1.155 ps=7.33 w=7 l=0.7
X55 vdd.t92 vdd.t90 vdd.t91 vdd.t73 sky130_fd_pr__pfet_01v8 ad=3.51 pd=18.78 as=0 ps=0 w=9 l=0.5
X56 vdd.t264 a_n7636_8799.t48 CSoutput.t104 vdd.t129 sky130_fd_pr__pfet_01v8 ad=1.32 pd=8.33 as=1.32 ps=8.33 w=8 l=0.5
X57 a_n2318_13878.t2 minus.t9 a_n2903_n3924.t4 gnd.t22 sky130_fd_pr__nfet_01v8 ad=1.155 pd=7.33 as=1.155 ps=7.33 w=7 l=0.7
X58 diffpairibias.t15 diffpairibias.t14 gnd.t77 gnd.t76 sky130_fd_pr__nfet_01v8 ad=2.73 pd=14.78 as=2.73 ps=14.78 w=7 l=1
X59 a_n7636_8799.t18 a_n2318_13878.t56 a_n2318_8322.t24 vdd.t238 sky130_fd_pr__pfet_01v8 ad=1.485 pd=9.33 as=1.485 ps=9.33 w=9 l=0.5
X60 vdd.t207 a_n7636_8799.t49 CSoutput.t103 vdd.t122 sky130_fd_pr__pfet_01v8 ad=1.32 pd=8.33 as=1.32 ps=8.33 w=8 l=0.5
X61 vdd.t209 a_n7636_8799.t50 CSoutput.t102 vdd.t126 sky130_fd_pr__pfet_01v8 ad=1.32 pd=8.33 as=1.32 ps=8.33 w=8 l=0.5
X62 CSoutput.t101 a_n7636_8799.t51 vdd.t143 vdd.t15 sky130_fd_pr__pfet_01v8 ad=1.32 pd=8.33 as=1.32 ps=8.33 w=8 l=0.5
X63 plus.t0 gnd.t277 gnd.t279 gnd.t278 sky130_fd_pr__nfet_01v8 ad=0.165 pd=1.33 as=0.165 ps=1.33 w=1 l=0.5
X64 gnd.t165 commonsourceibias.t72 CSoutput.t146 gnd.t164 sky130_fd_pr__nfet_01v8 ad=1.155 pd=7.33 as=1.155 ps=7.33 w=7 l=1
X65 gnd.t55 commonsourceibias.t73 CSoutput.t117 gnd.t15 sky130_fd_pr__nfet_01v8 ad=1.155 pd=7.33 as=1.155 ps=7.33 w=7 l=1
X66 diffpairibias.t13 diffpairibias.t12 gnd.t155 gnd.t154 sky130_fd_pr__nfet_01v8 ad=2.73 pd=14.78 as=2.73 ps=14.78 w=7 l=1
X67 CSoutput.t100 a_n7636_8799.t52 vdd.t174 vdd.t105 sky130_fd_pr__pfet_01v8 ad=1.32 pd=8.33 as=1.32 ps=8.33 w=8 l=0.5
X68 output.t14 CSoutput.t165 vdd.t178 gnd.t140 sky130_fd_pr__nfet_01v8 ad=0.825 pd=5.33 as=0.825 ps=5.33 w=5 l=1
X69 gnd.t74 commonsourceibias.t74 CSoutput.t120 gnd.t73 sky130_fd_pr__nfet_01v8 ad=1.155 pd=7.33 as=1.155 ps=7.33 w=7 l=1
X70 gnd.t276 gnd.t274 gnd.t275 gnd.t203 sky130_fd_pr__nfet_01v8 ad=2.73 pd=14.78 as=0 ps=0 w=7 l=0.7
X71 vdd.t116 CSoutput.t166 output.t13 gnd.t139 sky130_fd_pr__nfet_01v8 ad=0.825 pd=5.33 as=1.95 ps=10.78 w=5 l=1
X72 commonsourceibias.t53 commonsourceibias.t52 gnd.t291 gnd.t27 sky130_fd_pr__nfet_01v8 ad=1.155 pd=7.33 as=1.155 ps=7.33 w=7 l=1
X73 CSoutput.t99 a_n7636_8799.t53 vdd.t204 vdd.t6 sky130_fd_pr__pfet_01v8 ad=1.32 pd=8.33 as=1.32 ps=8.33 w=8 l=0.5
X74 vdd.t104 a_n7636_8799.t54 CSoutput.t98 vdd.t103 sky130_fd_pr__pfet_01v8 ad=1.32 pd=8.33 as=1.32 ps=8.33 w=8 l=0.5
X75 CSoutput.t97 a_n7636_8799.t55 vdd.t267 vdd.t167 sky130_fd_pr__pfet_01v8 ad=1.32 pd=8.33 as=3.12 ps=16.78 w=8 l=0.5
X76 CSoutput.t96 a_n7636_8799.t56 vdd.t102 vdd.t6 sky130_fd_pr__pfet_01v8 ad=1.32 pd=8.33 as=1.32 ps=8.33 w=8 l=0.5
X77 CSoutput.t95 a_n7636_8799.t57 vdd.t13 vdd.t12 sky130_fd_pr__pfet_01v8 ad=1.32 pd=8.33 as=3.12 ps=16.78 w=8 l=0.5
X78 gnd.t312 commonsourceibias.t75 CSoutput.t159 gnd.t34 sky130_fd_pr__nfet_01v8 ad=1.155 pd=7.33 as=1.155 ps=7.33 w=7 l=1
X79 CSoutput.t167 a_n2318_8322.t0 sky130_fd_pr__cap_mim_m3_1 l=12 w=12
X80 commonsourceibias.t51 commonsourceibias.t50 gnd.t118 gnd.t50 sky130_fd_pr__nfet_01v8 ad=1.155 pd=7.33 as=1.155 ps=7.33 w=7 l=1
X81 gnd.t97 commonsourceibias.t76 CSoutput.t128 gnd.t53 sky130_fd_pr__nfet_01v8 ad=1.155 pd=7.33 as=1.155 ps=7.33 w=7 l=1
X82 a_n2903_n3924.t26 plus.t9 a_n7636_8799.t3 gnd.t23 sky130_fd_pr__nfet_01v8 ad=1.155 pd=7.33 as=1.155 ps=7.33 w=7 l=0.7
X83 commonsourceibias.t49 commonsourceibias.t48 gnd.t119 gnd.t80 sky130_fd_pr__nfet_01v8 ad=1.155 pd=7.33 as=1.155 ps=7.33 w=7 l=1
X84 vdd.t150 a_n7636_8799.t58 CSoutput.t94 vdd.t139 sky130_fd_pr__pfet_01v8 ad=1.32 pd=8.33 as=1.32 ps=8.33 w=8 l=0.5
X85 CSoutput.t14 commonsourceibias.t77 gnd.t41 gnd.t40 sky130_fd_pr__nfet_01v8 ad=1.155 pd=7.33 as=2.73 ps=14.78 w=7 l=1
X86 a_n2903_n3924.t34 diffpairibias.t17 gnd.t124 gnd.t123 sky130_fd_pr__nfet_01v8 ad=2.73 pd=14.78 as=2.73 ps=14.78 w=7 l=1
X87 gnd.t120 commonsourceibias.t46 commonsourceibias.t47 gnd.t53 sky130_fd_pr__nfet_01v8 ad=1.155 pd=7.33 as=1.155 ps=7.33 w=7 l=1
X88 vdd.t261 a_n7636_8799.t59 CSoutput.t93 vdd.t8 sky130_fd_pr__pfet_01v8 ad=1.32 pd=8.33 as=1.32 ps=8.33 w=8 l=0.5
X89 vdd.t152 a_n7636_8799.t60 CSoutput.t92 vdd.t151 sky130_fd_pr__pfet_01v8 ad=1.32 pd=8.33 as=1.32 ps=8.33 w=8 l=0.5
X90 a_n7636_8799.t19 a_n2318_13878.t57 a_n2318_8322.t23 vdd.t246 sky130_fd_pr__pfet_01v8 ad=1.485 pd=9.33 as=1.485 ps=9.33 w=9 l=0.5
X91 a_n2318_13878.t38 a_n2318_13878.t37 a_n2140_13878.t17 vdd.t256 sky130_fd_pr__pfet_01v8 ad=1.485 pd=9.33 as=1.485 ps=9.33 w=9 l=0.5
X92 a_n2318_13878.t46 a_n2318_13878.t45 a_n2140_13878.t16 vdd.t215 sky130_fd_pr__pfet_01v8 ad=3.51 pd=18.78 as=1.485 ps=9.33 w=9 l=0.5
X93 gnd.t292 commonsourceibias.t44 commonsourceibias.t45 gnd.t31 sky130_fd_pr__nfet_01v8 ad=2.73 pd=14.78 as=1.155 ps=7.33 w=7 l=1
X94 gnd.t273 gnd.t271 gnd.t272 gnd.t228 sky130_fd_pr__nfet_01v8 ad=2.73 pd=14.78 as=0 ps=0 w=7 l=1
X95 commonsourceibias.t43 commonsourceibias.t42 gnd.t313 gnd.t44 sky130_fd_pr__nfet_01v8 ad=1.155 pd=7.33 as=1.155 ps=7.33 w=7 l=1
X96 CSoutput.t91 a_n7636_8799.t61 vdd.t160 vdd.t159 sky130_fd_pr__pfet_01v8 ad=1.32 pd=8.33 as=1.32 ps=8.33 w=8 l=0.5
X97 vdd.t24 a_n7636_8799.t62 CSoutput.t90 vdd.t23 sky130_fd_pr__pfet_01v8 ad=1.32 pd=8.33 as=1.32 ps=8.33 w=8 l=0.5
X98 CSoutput.t132 commonsourceibias.t78 gnd.t113 gnd.t112 sky130_fd_pr__nfet_01v8 ad=1.155 pd=7.33 as=1.155 ps=7.33 w=7 l=1
X99 a_n2318_13878.t49 minus.t10 a_n2903_n3924.t44 gnd.t62 sky130_fd_pr__nfet_01v8 ad=1.155 pd=7.33 as=1.155 ps=7.33 w=7 l=0.7
X100 CSoutput.t133 commonsourceibias.t79 gnd.t114 gnd.t13 sky130_fd_pr__nfet_01v8 ad=1.155 pd=7.33 as=1.155 ps=7.33 w=7 l=1
X101 vdd.t117 CSoutput.t168 output.t12 gnd.t138 sky130_fd_pr__nfet_01v8 ad=0.825 pd=5.33 as=0.825 ps=5.33 w=5 l=1
X102 vdd.t89 vdd.t87 vdd.t88 vdd.t39 sky130_fd_pr__pfet_01v8 ad=3.12 pd=16.78 as=0 ps=0 w=8 l=0.5
X103 CSoutput.t89 a_n7636_8799.t63 vdd.t106 vdd.t105 sky130_fd_pr__pfet_01v8 ad=1.32 pd=8.33 as=1.32 ps=8.33 w=8 l=0.5
X104 vdd.t86 vdd.t84 vdd.t85 vdd.t77 sky130_fd_pr__pfet_01v8 ad=3.51 pd=18.78 as=0 ps=0 w=9 l=0.5
X105 CSoutput.t153 commonsourceibias.t80 gnd.t289 gnd.t19 sky130_fd_pr__nfet_01v8 ad=1.155 pd=7.33 as=1.155 ps=7.33 w=7 l=1
X106 vdd.t83 vdd.t80 vdd.t82 vdd.t81 sky130_fd_pr__pfet_01v8 ad=3.51 pd=18.78 as=0 ps=0 w=9 l=0.5
X107 gnd.t86 commonsourceibias.t81 CSoutput.t127 gnd.t31 sky130_fd_pr__nfet_01v8 ad=2.73 pd=14.78 as=1.155 ps=7.33 w=7 l=1
X108 commonsourceibias.t41 commonsourceibias.t40 gnd.t294 gnd.t9 sky130_fd_pr__nfet_01v8 ad=1.155 pd=7.33 as=1.155 ps=7.33 w=7 l=1
X109 CSoutput.t145 commonsourceibias.t82 gnd.t163 gnd.t98 sky130_fd_pr__nfet_01v8 ad=1.155 pd=7.33 as=1.155 ps=7.33 w=7 l=1
X110 a_n2903_n3924.t40 minus.t11 a_n2318_13878.t13 gnd.t61 sky130_fd_pr__nfet_01v8 ad=1.155 pd=7.33 as=1.155 ps=7.33 w=7 l=0.7
X111 CSoutput.t169 a_n2318_8322.t2 sky130_fd_pr__cap_mim_m3_1 l=12 w=12
X112 a_n2318_8322.t11 a_n2318_13878.t58 vdd.t255 vdd.t254 sky130_fd_pr__pfet_01v8 ad=1.485 pd=9.33 as=1.485 ps=9.33 w=9 l=0.5
X113 vdd.t253 a_n2318_13878.t59 a_n2318_8322.t10 vdd.t252 sky130_fd_pr__pfet_01v8 ad=1.485 pd=9.33 as=1.485 ps=9.33 w=9 l=0.5
X114 a_n2318_13878.t16 a_n2318_13878.t15 a_n2140_13878.t15 vdd.t222 sky130_fd_pr__pfet_01v8 ad=3.51 pd=18.78 as=1.485 ps=9.33 w=9 l=0.5
X115 CSoutput.t88 a_n7636_8799.t64 vdd.t210 vdd.t167 sky130_fd_pr__pfet_01v8 ad=1.32 pd=8.33 as=3.12 ps=16.78 w=8 l=0.5
X116 CSoutput.t87 a_n7636_8799.t65 vdd.t7 vdd.t6 sky130_fd_pr__pfet_01v8 ad=1.32 pd=8.33 as=1.32 ps=8.33 w=8 l=0.5
X117 gnd.t304 commonsourceibias.t83 CSoutput.t157 gnd.t110 sky130_fd_pr__nfet_01v8 ad=1.155 pd=7.33 as=1.155 ps=7.33 w=7 l=1
X118 gnd.t270 gnd.t268 gnd.t269 gnd.t214 sky130_fd_pr__nfet_01v8 ad=2.73 pd=14.78 as=0 ps=0 w=7 l=0.7
X119 output.t18 outputibias.t11 gnd.t297 gnd.t296 sky130_fd_pr__nfet_01v8 ad=2.34 pd=12.78 as=2.34 ps=12.78 w=6 l=2
X120 a_n2903_n3924.t32 diffpairibias.t18 gnd.t90 gnd.t89 sky130_fd_pr__nfet_01v8 ad=2.73 pd=14.78 as=2.73 ps=14.78 w=7 l=1
X121 a_n2903_n3924.t43 minus.t12 a_n2318_13878.t48 gnd.t60 sky130_fd_pr__nfet_01v8 ad=1.155 pd=7.33 as=1.155 ps=7.33 w=7 l=0.7
X122 CSoutput.t170 a_n2318_8322.t1 sky130_fd_pr__cap_mim_m3_1 l=12 w=12
X123 commonsourceibias.t39 commonsourceibias.t38 gnd.t315 gnd.t19 sky130_fd_pr__nfet_01v8 ad=1.155 pd=7.33 as=1.155 ps=7.33 w=7 l=1
X124 vdd.t251 a_n2318_13878.t60 a_n2140_13878.t22 vdd.t250 sky130_fd_pr__pfet_01v8 ad=1.485 pd=9.33 as=1.485 ps=9.33 w=9 l=0.5
X125 a_n2318_13878.t5 minus.t13 a_n2903_n3924.t7 gnd.t29 sky130_fd_pr__nfet_01v8 ad=1.155 pd=7.33 as=2.73 ps=14.78 w=7 l=0.7
X126 vdd.t79 vdd.t76 vdd.t78 vdd.t77 sky130_fd_pr__pfet_01v8 ad=3.51 pd=18.78 as=0 ps=0 w=9 l=0.5
X127 a_n2903_n3924.t25 plus.t10 a_n7636_8799.t14 gnd.t67 sky130_fd_pr__nfet_01v8 ad=1.155 pd=7.33 as=1.155 ps=7.33 w=7 l=0.7
X128 a_n2903_n3924.t24 plus.t11 a_n7636_8799.t7 gnd.t66 sky130_fd_pr__nfet_01v8 ad=1.155 pd=7.33 as=1.155 ps=7.33 w=7 l=0.7
X129 vdd.t9 a_n7636_8799.t66 CSoutput.t86 vdd.t8 sky130_fd_pr__pfet_01v8 ad=1.32 pd=8.33 as=1.32 ps=8.33 w=8 l=0.5
X130 gnd.t293 commonsourceibias.t36 commonsourceibias.t37 gnd.t164 sky130_fd_pr__nfet_01v8 ad=1.155 pd=7.33 as=1.155 ps=7.33 w=7 l=1
X131 gnd.t16 commonsourceibias.t84 CSoutput.t4 gnd.t15 sky130_fd_pr__nfet_01v8 ad=1.155 pd=7.33 as=1.155 ps=7.33 w=7 l=1
X132 a_n7636_8799.t13 plus.t12 a_n2903_n3924.t23 gnd.t8 sky130_fd_pr__nfet_01v8 ad=1.155 pd=7.33 as=1.155 ps=7.33 w=7 l=0.7
X133 a_n7636_8799.t25 a_n2318_13878.t61 a_n2318_8322.t22 vdd.t221 sky130_fd_pr__pfet_01v8 ad=1.485 pd=9.33 as=1.485 ps=9.33 w=9 l=0.5
X134 a_n2318_8322.t9 a_n2318_13878.t62 vdd.t249 vdd.t248 sky130_fd_pr__pfet_01v8 ad=3.51 pd=18.78 as=1.485 ps=9.33 w=9 l=0.5
X135 vdd.t75 vdd.t72 vdd.t74 vdd.t73 sky130_fd_pr__pfet_01v8 ad=3.51 pd=18.78 as=0 ps=0 w=9 l=0.5
X136 gnd.t144 commonsourceibias.t85 CSoutput.t138 gnd.t73 sky130_fd_pr__nfet_01v8 ad=1.155 pd=7.33 as=1.155 ps=7.33 w=7 l=1
X137 a_n7636_8799.t32 plus.t13 a_n2903_n3924.t22 gnd.t65 sky130_fd_pr__nfet_01v8 ad=1.155 pd=7.33 as=2.73 ps=14.78 w=7 l=0.7
X138 gnd.t72 commonsourceibias.t86 CSoutput.t119 gnd.t38 sky130_fd_pr__nfet_01v8 ad=1.155 pd=7.33 as=1.155 ps=7.33 w=7 l=1
X139 commonsourceibias.t35 commonsourceibias.t34 gnd.t314 gnd.t148 sky130_fd_pr__nfet_01v8 ad=1.155 pd=7.33 as=1.155 ps=7.33 w=7 l=1
X140 vdd.t121 a_n7636_8799.t67 CSoutput.t85 vdd.t23 sky130_fd_pr__pfet_01v8 ad=1.32 pd=8.33 as=1.32 ps=8.33 w=8 l=0.5
X141 vdd.t123 a_n7636_8799.t68 CSoutput.t84 vdd.t122 sky130_fd_pr__pfet_01v8 ad=1.32 pd=8.33 as=1.32 ps=8.33 w=8 l=0.5
X142 a_n2318_13878.t24 a_n2318_13878.t23 a_n2140_13878.t14 vdd.t233 sky130_fd_pr__pfet_01v8 ad=1.485 pd=9.33 as=1.485 ps=9.33 w=9 l=0.5
X143 CSoutput.t83 a_n7636_8799.t69 vdd.t202 vdd.t110 sky130_fd_pr__pfet_01v8 ad=1.32 pd=8.33 as=1.32 ps=8.33 w=8 l=0.5
X144 a_n2318_13878.t6 minus.t14 a_n2903_n3924.t8 gnd.t30 sky130_fd_pr__nfet_01v8 ad=1.155 pd=7.33 as=1.155 ps=7.33 w=7 l=0.7
X145 diffpairibias.t11 diffpairibias.t10 gnd.t170 gnd.t169 sky130_fd_pr__nfet_01v8 ad=2.73 pd=14.78 as=2.73 ps=14.78 w=7 l=1
X146 CSoutput.t82 a_n7636_8799.t70 vdd.t203 vdd.t159 sky130_fd_pr__pfet_01v8 ad=1.32 pd=8.33 as=1.32 ps=8.33 w=8 l=0.5
X147 a_n7636_8799.t28 a_n2318_13878.t63 a_n2318_8322.t21 vdd.t247 sky130_fd_pr__pfet_01v8 ad=1.485 pd=9.33 as=1.485 ps=9.33 w=9 l=0.5
X148 gnd.t162 commonsourceibias.t87 CSoutput.t144 gnd.t150 sky130_fd_pr__nfet_01v8 ad=1.155 pd=7.33 as=1.155 ps=7.33 w=7 l=1
X149 gnd.t267 gnd.t264 gnd.t266 gnd.t265 sky130_fd_pr__nfet_01v8 ad=2.34 pd=12.78 as=0 ps=0 w=6 l=2
X150 a_n2140_13878.t13 a_n2318_13878.t25 a_n2318_13878.t26 vdd.t246 sky130_fd_pr__pfet_01v8 ad=1.485 pd=9.33 as=1.485 ps=9.33 w=9 l=0.5
X151 gnd.t263 gnd.t261 minus.t4 gnd.t262 sky130_fd_pr__nfet_01v8 ad=0.165 pd=1.33 as=0.39 ps=2.78 w=1 l=0.5
X152 vdd.t71 vdd.t69 vdd.t70 vdd.t39 sky130_fd_pr__pfet_01v8 ad=3.12 pd=16.78 as=0 ps=0 w=8 l=0.5
X153 CSoutput.t126 commonsourceibias.t88 gnd.t85 gnd.t40 sky130_fd_pr__nfet_01v8 ad=1.155 pd=7.33 as=2.73 ps=14.78 w=7 l=1
X154 gnd.t54 commonsourceibias.t89 CSoutput.t20 gnd.t53 sky130_fd_pr__nfet_01v8 ad=1.155 pd=7.33 as=1.155 ps=7.33 w=7 l=1
X155 a_n2903_n3924.t6 minus.t15 a_n2318_13878.t4 gnd.t24 sky130_fd_pr__nfet_01v8 ad=1.155 pd=7.33 as=1.155 ps=7.33 w=7 l=0.7
X156 commonsourceibias.t33 commonsourceibias.t32 gnd.t295 gnd.t40 sky130_fd_pr__nfet_01v8 ad=1.155 pd=7.33 as=2.73 ps=14.78 w=7 l=1
X157 a_n2140_13878.t12 a_n2318_13878.t27 a_n2318_13878.t28 vdd.t245 sky130_fd_pr__pfet_01v8 ad=1.485 pd=9.33 as=3.51 ps=18.78 w=9 l=0.5
X158 CSoutput.t81 a_n7636_8799.t71 vdd.t16 vdd.t15 sky130_fd_pr__pfet_01v8 ad=1.32 pd=8.33 as=1.32 ps=8.33 w=8 l=0.5
X159 vdd.t244 a_n2318_13878.t64 a_n2318_8322.t8 vdd.t243 sky130_fd_pr__pfet_01v8 ad=1.485 pd=9.33 as=3.51 ps=18.78 w=9 l=0.5
X160 CSoutput.t19 commonsourceibias.t90 gnd.t52 gnd.t36 sky130_fd_pr__nfet_01v8 ad=1.155 pd=7.33 as=1.155 ps=7.33 w=7 l=1
X161 a_n2318_13878.t30 a_n2318_13878.t29 a_n2140_13878.t11 vdd.t218 sky130_fd_pr__pfet_01v8 ad=1.485 pd=9.33 as=1.485 ps=9.33 w=9 l=0.5
X162 vdd.t18 a_n7636_8799.t72 CSoutput.t80 vdd.t17 sky130_fd_pr__pfet_01v8 ad=1.32 pd=8.33 as=1.32 ps=8.33 w=8 l=0.5
X163 vdd.t259 a_n7636_8799.t73 CSoutput.t79 vdd.t188 sky130_fd_pr__pfet_01v8 ad=1.32 pd=8.33 as=1.32 ps=8.33 w=8 l=0.5
X164 gnd.t260 gnd.t258 minus.t3 gnd.t259 sky130_fd_pr__nfet_01v8 ad=0.165 pd=1.33 as=0.165 ps=1.33 w=1 l=0.5
X165 a_n2903_n3924.t21 plus.t14 a_n7636_8799.t2 gnd.t64 sky130_fd_pr__nfet_01v8 ad=2.73 pd=14.78 as=1.155 ps=7.33 w=7 l=0.7
X166 gnd.t257 gnd.t254 gnd.t256 gnd.t255 sky130_fd_pr__nfet_01v8 ad=2.73 pd=14.78 as=0 ps=0 w=7 l=1
X167 a_n2903_n3924.t0 diffpairibias.t19 gnd.t1 gnd.t0 sky130_fd_pr__nfet_01v8 ad=2.73 pd=14.78 as=2.73 ps=14.78 w=7 l=1
X168 CSoutput.t3 commonsourceibias.t91 gnd.t14 gnd.t13 sky130_fd_pr__nfet_01v8 ad=1.155 pd=7.33 as=1.155 ps=7.33 w=7 l=1
X169 CSoutput.t6 commonsourceibias.t92 gnd.t20 gnd.t19 sky130_fd_pr__nfet_01v8 ad=1.155 pd=7.33 as=1.155 ps=7.33 w=7 l=1
X170 CSoutput.t0 commonsourceibias.t93 gnd.t3 gnd.t2 sky130_fd_pr__nfet_01v8 ad=1.155 pd=7.33 as=1.155 ps=7.33 w=7 l=1
X171 vdd.t107 CSoutput.t171 output.t11 gnd.t137 sky130_fd_pr__nfet_01v8 ad=0.825 pd=5.33 as=0.825 ps=5.33 w=5 l=1
X172 a_n2903_n3924.t37 diffpairibias.t20 gnd.t157 gnd.t156 sky130_fd_pr__nfet_01v8 ad=2.73 pd=14.78 as=2.73 ps=14.78 w=7 l=1
X173 vdd.t260 a_n7636_8799.t74 CSoutput.t78 vdd.t139 sky130_fd_pr__pfet_01v8 ad=1.32 pd=8.33 as=1.32 ps=8.33 w=8 l=0.5
X174 vdd.t146 a_n7636_8799.t75 CSoutput.t77 vdd.t141 sky130_fd_pr__pfet_01v8 ad=3.12 pd=16.78 as=1.32 ps=8.33 w=8 l=0.5
X175 gnd.t32 commonsourceibias.t94 CSoutput.t9 gnd.t31 sky130_fd_pr__nfet_01v8 ad=2.73 pd=14.78 as=1.155 ps=7.33 w=7 l=1
X176 a_n7636_8799.t5 plus.t15 a_n2903_n3924.t20 gnd.t63 sky130_fd_pr__nfet_01v8 ad=1.155 pd=7.33 as=1.155 ps=7.33 w=7 l=0.7
X177 gnd.t303 commonsourceibias.t95 CSoutput.t156 gnd.t125 sky130_fd_pr__nfet_01v8 ad=2.73 pd=14.78 as=1.155 ps=7.33 w=7 l=1
X178 CSoutput.t2 commonsourceibias.t96 gnd.t12 gnd.t11 sky130_fd_pr__nfet_01v8 ad=1.155 pd=7.33 as=1.155 ps=7.33 w=7 l=1
X179 commonsourceibias.t31 commonsourceibias.t30 gnd.t316 gnd.t13 sky130_fd_pr__nfet_01v8 ad=1.155 pd=7.33 as=1.155 ps=7.33 w=7 l=1
X180 CSoutput.t76 a_n7636_8799.t76 vdd.t148 vdd.t147 sky130_fd_pr__pfet_01v8 ad=1.32 pd=8.33 as=1.32 ps=8.33 w=8 l=0.5
X181 gnd.t127 commonsourceibias.t97 CSoutput.t137 gnd.t110 sky130_fd_pr__nfet_01v8 ad=1.155 pd=7.33 as=1.155 ps=7.33 w=7 l=1
X182 CSoutput.t75 a_n7636_8799.t77 vdd.t144 vdd.t2 sky130_fd_pr__pfet_01v8 ad=1.32 pd=8.33 as=1.32 ps=8.33 w=8 l=0.5
X183 CSoutput.t74 a_n7636_8799.t78 vdd.t145 vdd.t114 sky130_fd_pr__pfet_01v8 ad=1.32 pd=8.33 as=1.32 ps=8.33 w=8 l=0.5
X184 a_n2140_13878.t21 a_n2318_13878.t65 vdd.t242 vdd.t241 sky130_fd_pr__pfet_01v8 ad=1.485 pd=9.33 as=1.485 ps=9.33 w=9 l=0.5
X185 CSoutput.t118 commonsourceibias.t98 gnd.t59 gnd.t50 sky130_fd_pr__nfet_01v8 ad=1.155 pd=7.33 as=1.155 ps=7.33 w=7 l=1
X186 gnd.t253 gnd.t251 gnd.t252 gnd.t210 sky130_fd_pr__nfet_01v8 ad=2.73 pd=14.78 as=0 ps=0 w=7 l=1
X187 diffpairibias.t9 diffpairibias.t8 gnd.t172 gnd.t171 sky130_fd_pr__nfet_01v8 ad=2.73 pd=14.78 as=2.73 ps=14.78 w=7 l=1
X188 vdd.t68 vdd.t66 vdd.t67 vdd.t56 sky130_fd_pr__pfet_01v8 ad=3.12 pd=16.78 as=0 ps=0 w=8 l=0.5
X189 vdd.t240 a_n2318_13878.t66 a_n2140_13878.t0 vdd.t239 sky130_fd_pr__pfet_01v8 ad=1.485 pd=9.33 as=1.485 ps=9.33 w=9 l=0.5
X190 vdd.t19 a_n7636_8799.t79 CSoutput.t73 vdd.t17 sky130_fd_pr__pfet_01v8 ad=1.32 pd=8.33 as=1.32 ps=8.33 w=8 l=0.5
X191 CSoutput.t72 a_n7636_8799.t80 vdd.t20 vdd.t15 sky130_fd_pr__pfet_01v8 ad=1.32 pd=8.33 as=1.32 ps=8.33 w=8 l=0.5
X192 vdd.t65 vdd.t63 vdd.t64 vdd.t56 sky130_fd_pr__pfet_01v8 ad=3.12 pd=16.78 as=0 ps=0 w=8 l=0.5
X193 CSoutput.t7 commonsourceibias.t99 gnd.t26 gnd.t25 sky130_fd_pr__nfet_01v8 ad=1.155 pd=7.33 as=2.73 ps=14.78 w=7 l=1
X194 gnd.t290 commonsourceibias.t100 CSoutput.t154 gnd.t115 sky130_fd_pr__nfet_01v8 ad=1.155 pd=7.33 as=1.155 ps=7.33 w=7 l=1
X195 a_n2140_13878.t10 a_n2318_13878.t31 a_n2318_13878.t32 vdd.t238 sky130_fd_pr__pfet_01v8 ad=1.485 pd=9.33 as=1.485 ps=9.33 w=9 l=0.5
X196 gnd.t317 commonsourceibias.t28 commonsourceibias.t29 gnd.t160 sky130_fd_pr__nfet_01v8 ad=1.155 pd=7.33 as=1.155 ps=7.33 w=7 l=1
X197 gnd.t39 commonsourceibias.t101 CSoutput.t13 gnd.t38 sky130_fd_pr__nfet_01v8 ad=1.155 pd=7.33 as=1.155 ps=7.33 w=7 l=1
X198 a_n2903_n3924.t42 minus.t16 a_n2318_13878.t47 gnd.t69 sky130_fd_pr__nfet_01v8 ad=1.155 pd=7.33 as=1.155 ps=7.33 w=7 l=0.7
X199 vdd.t189 a_n7636_8799.t81 CSoutput.t71 vdd.t188 sky130_fd_pr__pfet_01v8 ad=1.32 pd=8.33 as=1.32 ps=8.33 w=8 l=0.5
X200 a_n2318_8322.t20 a_n2318_13878.t67 a_n7636_8799.t26 vdd.t211 sky130_fd_pr__pfet_01v8 ad=1.485 pd=9.33 as=1.485 ps=9.33 w=9 l=0.5
X201 gnd.t151 commonsourceibias.t102 CSoutput.t140 gnd.t150 sky130_fd_pr__nfet_01v8 ad=1.155 pd=7.33 as=1.155 ps=7.33 w=7 l=1
X202 vdd.t190 a_n7636_8799.t82 CSoutput.t70 vdd.t129 sky130_fd_pr__pfet_01v8 ad=1.32 pd=8.33 as=1.32 ps=8.33 w=8 l=0.5
X203 CSoutput.t69 a_n7636_8799.t83 vdd.t138 vdd.t137 sky130_fd_pr__pfet_01v8 ad=1.32 pd=8.33 as=1.32 ps=8.33 w=8 l=0.5
X204 a_n2318_13878.t50 minus.t17 a_n2903_n3924.t45 gnd.t68 sky130_fd_pr__nfet_01v8 ad=1.155 pd=7.33 as=1.155 ps=7.33 w=7 l=0.7
X205 CSoutput.t139 commonsourceibias.t103 gnd.t149 gnd.t148 sky130_fd_pr__nfet_01v8 ad=1.155 pd=7.33 as=1.155 ps=7.33 w=7 l=1
X206 diffpairibias.t7 diffpairibias.t6 gnd.t147 gnd.t146 sky130_fd_pr__nfet_01v8 ad=2.73 pd=14.78 as=2.73 ps=14.78 w=7 l=1
X207 vdd.t179 CSoutput.t172 output.t10 gnd.t136 sky130_fd_pr__nfet_01v8 ad=0.825 pd=5.33 as=0.825 ps=5.33 w=5 l=1
X208 vdd.t140 a_n7636_8799.t84 CSoutput.t68 vdd.t139 sky130_fd_pr__pfet_01v8 ad=1.32 pd=8.33 as=1.32 ps=8.33 w=8 l=0.5
X209 vdd.t185 a_n7636_8799.t85 CSoutput.t67 vdd.t141 sky130_fd_pr__pfet_01v8 ad=3.12 pd=16.78 as=1.32 ps=8.33 w=8 l=0.5
X210 vdd.t237 a_n2318_13878.t68 a_n2318_8322.t7 vdd.t236 sky130_fd_pr__pfet_01v8 ad=1.485 pd=9.33 as=3.51 ps=18.78 w=9 l=0.5
X211 plus.t4 gnd.t248 gnd.t250 gnd.t249 sky130_fd_pr__nfet_01v8 ad=0.165 pd=1.33 as=0.165 ps=1.33 w=1 l=0.5
X212 a_n2318_13878.t14 minus.t18 a_n2903_n3924.t41 gnd.t71 sky130_fd_pr__nfet_01v8 ad=1.155 pd=7.33 as=1.155 ps=7.33 w=7 l=0.7
X213 gnd.t247 gnd.t244 gnd.t246 gnd.t245 sky130_fd_pr__nfet_01v8 ad=1.95 pd=10.78 as=0 ps=0 w=5 l=1
X214 gnd.t318 commonsourceibias.t26 commonsourceibias.t27 gnd.t150 sky130_fd_pr__nfet_01v8 ad=1.155 pd=7.33 as=1.155 ps=7.33 w=7 l=1
X215 CSoutput.t148 commonsourceibias.t104 gnd.t173 gnd.t80 sky130_fd_pr__nfet_01v8 ad=1.155 pd=7.33 as=1.155 ps=7.33 w=7 l=1
X216 a_n7636_8799.t34 plus.t16 a_n2903_n3924.t19 gnd.t22 sky130_fd_pr__nfet_01v8 ad=1.155 pd=7.33 as=1.155 ps=7.33 w=7 l=0.7
X217 gnd.t243 gnd.t241 gnd.t242 gnd.t210 sky130_fd_pr__nfet_01v8 ad=2.73 pd=14.78 as=0 ps=0 w=7 l=1
X218 gnd.t240 gnd.t238 minus.t2 gnd.t239 sky130_fd_pr__nfet_01v8 ad=0.39 pd=2.78 as=0.165 ps=1.33 w=1 l=0.5
X219 CSoutput.t12 commonsourceibias.t105 gnd.t37 gnd.t36 sky130_fd_pr__nfet_01v8 ad=1.155 pd=7.33 as=1.155 ps=7.33 w=7 l=1
X220 a_n2903_n3924.t46 minus.t19 a_n2318_13878.t51 gnd.t70 sky130_fd_pr__nfet_01v8 ad=1.155 pd=7.33 as=1.155 ps=7.33 w=7 l=0.7
X221 a_n2140_13878.t3 a_n2318_13878.t69 vdd.t235 vdd.t234 sky130_fd_pr__pfet_01v8 ad=3.51 pd=18.78 as=1.485 ps=9.33 w=9 l=0.5
X222 vdd.t186 a_n7636_8799.t86 CSoutput.t66 vdd.t151 sky130_fd_pr__pfet_01v8 ad=1.32 pd=8.33 as=1.32 ps=8.33 w=8 l=0.5
X223 CSoutput.t65 a_n7636_8799.t87 vdd.t1 vdd.t0 sky130_fd_pr__pfet_01v8 ad=1.32 pd=8.33 as=1.32 ps=8.33 w=8 l=0.5
X224 CSoutput.t64 a_n7636_8799.t88 vdd.t3 vdd.t2 sky130_fd_pr__pfet_01v8 ad=1.32 pd=8.33 as=1.32 ps=8.33 w=8 l=0.5
X225 gnd.t319 commonsourceibias.t24 commonsourceibias.t25 gnd.t82 sky130_fd_pr__nfet_01v8 ad=1.155 pd=7.33 as=1.155 ps=7.33 w=7 l=1
X226 vdd.t62 vdd.t59 vdd.t61 vdd.t60 sky130_fd_pr__pfet_01v8 ad=3.12 pd=16.78 as=0 ps=0 w=8 l=0.5
X227 minus.t1 gnd.t235 gnd.t237 gnd.t236 sky130_fd_pr__nfet_01v8 ad=0.165 pd=1.33 as=0.165 ps=1.33 w=1 l=0.5
X228 gnd.t234 gnd.t231 gnd.t233 gnd.t232 sky130_fd_pr__nfet_01v8 ad=2.73 pd=14.78 as=0 ps=0 w=7 l=1
X229 a_n2318_8322.t19 a_n2318_13878.t70 a_n7636_8799.t22 vdd.t233 sky130_fd_pr__pfet_01v8 ad=1.485 pd=9.33 as=1.485 ps=9.33 w=9 l=0.5
X230 vdd.t232 a_n2318_13878.t71 a_n2318_8322.t6 vdd.t231 sky130_fd_pr__pfet_01v8 ad=1.485 pd=9.33 as=1.485 ps=9.33 w=9 l=0.5
X231 vdd.t58 vdd.t55 vdd.t57 vdd.t56 sky130_fd_pr__pfet_01v8 ad=3.12 pd=16.78 as=0 ps=0 w=8 l=0.5
X232 CSoutput.t63 a_n7636_8799.t89 vdd.t131 vdd.t2 sky130_fd_pr__pfet_01v8 ad=1.32 pd=8.33 as=1.32 ps=8.33 w=8 l=0.5
X233 CSoutput.t155 commonsourceibias.t106 gnd.t302 gnd.t9 sky130_fd_pr__nfet_01v8 ad=1.155 pd=7.33 as=1.155 ps=7.33 w=7 l=1
X234 gnd.t230 gnd.t227 gnd.t229 gnd.t228 sky130_fd_pr__nfet_01v8 ad=2.73 pd=14.78 as=0 ps=0 w=7 l=1
X235 a_n2903_n3924.t33 diffpairibias.t21 gnd.t96 gnd.t95 sky130_fd_pr__nfet_01v8 ad=2.73 pd=14.78 as=2.73 ps=14.78 w=7 l=1
X236 CSoutput.t62 a_n7636_8799.t90 vdd.t133 vdd.t132 sky130_fd_pr__pfet_01v8 ad=1.32 pd=8.33 as=1.32 ps=8.33 w=8 l=0.5
X237 vdd.t193 a_n7636_8799.t91 CSoutput.t61 vdd.t153 sky130_fd_pr__pfet_01v8 ad=1.32 pd=8.33 as=1.32 ps=8.33 w=8 l=0.5
X238 CSoutput.t158 commonsourceibias.t107 gnd.t310 gnd.t2 sky130_fd_pr__nfet_01v8 ad=1.155 pd=7.33 as=1.155 ps=7.33 w=7 l=1
X239 vdd.t194 a_n7636_8799.t92 CSoutput.t60 vdd.t162 sky130_fd_pr__pfet_01v8 ad=1.32 pd=8.33 as=1.32 ps=8.33 w=8 l=0.5
X240 vdd.t164 a_n7636_8799.t93 CSoutput.t59 vdd.t157 sky130_fd_pr__pfet_01v8 ad=1.32 pd=8.33 as=1.32 ps=8.33 w=8 l=0.5
X241 gnd.t126 commonsourceibias.t108 CSoutput.t136 gnd.t125 sky130_fd_pr__nfet_01v8 ad=2.73 pd=14.78 as=1.155 ps=7.33 w=7 l=1
X242 CSoutput.t125 commonsourceibias.t109 gnd.t84 gnd.t11 sky130_fd_pr__nfet_01v8 ad=1.155 pd=7.33 as=1.155 ps=7.33 w=7 l=1
X243 a_n7636_8799.t35 plus.t17 a_n2903_n3924.t18 gnd.t21 sky130_fd_pr__nfet_01v8 ad=1.155 pd=7.33 as=1.155 ps=7.33 w=7 l=0.7
X244 gnd.t226 gnd.t223 gnd.t225 gnd.t224 sky130_fd_pr__nfet_01v8 ad=2.34 pd=12.78 as=0 ps=0 w=6 l=2
X245 gnd.t111 commonsourceibias.t22 commonsourceibias.t23 gnd.t110 sky130_fd_pr__nfet_01v8 ad=1.155 pd=7.33 as=1.155 ps=7.33 w=7 l=1
X246 vdd.t54 vdd.t52 vdd.t53 vdd.t35 sky130_fd_pr__pfet_01v8 ad=3.12 pd=16.78 as=0 ps=0 w=8 l=0.5
X247 gnd.t83 commonsourceibias.t110 CSoutput.t124 gnd.t82 sky130_fd_pr__nfet_01v8 ad=1.155 pd=7.33 as=1.155 ps=7.33 w=7 l=1
X248 output.t9 CSoutput.t173 vdd.t180 gnd.t135 sky130_fd_pr__nfet_01v8 ad=0.825 pd=5.33 as=0.825 ps=5.33 w=5 l=1
X249 vdd.t51 vdd.t48 vdd.t50 vdd.t49 sky130_fd_pr__pfet_01v8 ad=3.51 pd=18.78 as=0 ps=0 w=9 l=0.5