* NGSPICE file created from opamp180.ext - technology: sky130A

.subckt opamp180 gnd CSoutput output vdd plus minus commonsourceibias outputibias
+ diffpairibias
X0 CSoutput.t191 a_n7636_8799.t40 vdd.t265 vdd.t220 sky130_fd_pr__pfet_01v8 ad=1.32 pd=8.33 as=1.32 ps=8.33 w=8 l=0.5
X1 a_n2140_13878.t15 a_n2318_13878.t31 a_n2318_13878.t32 vdd.t42 sky130_fd_pr__pfet_01v8 ad=1.485 pd=9.33 as=1.485 ps=9.33 w=9 l=0.5
X2 CSoutput.t81 commonsourceibias.t80 gnd.t219 gnd.t131 sky130_fd_pr__nfet_01v8 ad=1.155 pd=7.33 as=1.155 ps=7.33 w=7 l=1
X3 a_n2140_13878.t23 a_n2318_13878.t56 vdd.t13 vdd.t12 sky130_fd_pr__pfet_01v8 ad=1.485 pd=9.33 as=1.485 ps=9.33 w=9 l=0.5
X4 vdd.t264 a_n7636_8799.t41 CSoutput.t190 vdd.t215 sky130_fd_pr__pfet_01v8 ad=1.32 pd=8.33 as=1.32 ps=8.33 w=8 l=0.5
X5 gnd.t218 commonsourceibias.t81 CSoutput.t94 gnd.t117 sky130_fd_pr__nfet_01v8 ad=1.155 pd=7.33 as=1.155 ps=7.33 w=7 l=1
X6 CSoutput.t70 commonsourceibias.t82 gnd.t217 gnd.t88 sky130_fd_pr__nfet_01v8 ad=1.155 pd=7.33 as=1.155 ps=7.33 w=7 l=1
X7 CSoutput.t76 commonsourceibias.t83 gnd.t216 gnd.t22 sky130_fd_pr__nfet_01v8 ad=1.155 pd=7.33 as=1.155 ps=7.33 w=7 l=1
X8 CSoutput.t189 a_n7636_8799.t42 vdd.t263 vdd.t146 sky130_fd_pr__pfet_01v8 ad=1.32 pd=8.33 as=1.32 ps=8.33 w=8 l=0.5
X9 gnd.t215 commonsourceibias.t84 CSoutput.t27 gnd.t135 sky130_fd_pr__nfet_01v8 ad=1.155 pd=7.33 as=1.155 ps=7.33 w=7 l=1
X10 CSoutput.t216 a_n2318_8322.t3 sky130_fd_pr__cap_mim_m3_1 l=12 w=12
X11 vdd.t125 vdd.t123 vdd.t124 vdd.t84 sky130_fd_pr__pfet_01v8 ad=3.12 pd=16.78 as=0 ps=0 w=8 l=0.5
X12 a_n2318_8322.t27 a_n2318_13878.t57 a_n7636_8799.t0 vdd.t8 sky130_fd_pr__pfet_01v8 ad=1.485 pd=9.33 as=1.485 ps=9.33 w=9 l=0.5
X13 gnd.t383 gnd.t381 gnd.t382 gnd.t306 sky130_fd_pr__nfet_01v8 ad=2.73 pd=14.78 as=0 ps=0 w=7 l=0.5
X14 vdd.t40 CSoutput.t217 output.t18 gnd.t260 sky130_fd_pr__nfet_01v8 ad=0.825 pd=5.33 as=0.825 ps=5.33 w=5 l=1
X15 CSoutput.t188 a_n7636_8799.t43 vdd.t262 vdd.t186 sky130_fd_pr__pfet_01v8 ad=1.32 pd=8.33 as=1.32 ps=8.33 w=8 l=0.5
X16 CSoutput.t7 commonsourceibias.t85 gnd.t214 gnd.t65 sky130_fd_pr__nfet_01v8 ad=1.155 pd=7.33 as=1.155 ps=7.33 w=7 l=1
X17 gnd.t380 gnd.t378 gnd.t379 gnd.t302 sky130_fd_pr__nfet_01v8 ad=2.73 pd=14.78 as=0 ps=0 w=7 l=0.5
X18 gnd.t377 gnd.t376 plus.t4 gnd.t306 sky130_fd_pr__nfet_01v8 ad=0.165 pd=1.33 as=0.165 ps=1.33 w=1 l=0.5
X19 gnd.t213 commonsourceibias.t86 CSoutput.t77 gnd.t35 sky130_fd_pr__nfet_01v8 ad=1.155 pd=7.33 as=1.155 ps=7.33 w=7 l=1
X20 CSoutput.t28 commonsourceibias.t87 gnd.t212 gnd.t115 sky130_fd_pr__nfet_01v8 ad=1.155 pd=7.33 as=1.155 ps=7.33 w=7 l=1
X21 a_n7636_8799.t4 plus.t5 a_n2903_n3924.t28 gnd.t1 sky130_fd_pr__nfet_01v8 ad=1.155 pd=7.33 as=1.155 ps=7.33 w=7 l=0.5
X22 gnd.t211 commonsourceibias.t88 CSoutput.t8 gnd.t62 sky130_fd_pr__nfet_01v8 ad=2.73 pd=14.78 as=1.155 ps=7.33 w=7 l=1
X23 vdd.t261 a_n7636_8799.t44 CSoutput.t187 vdd.t211 sky130_fd_pr__pfet_01v8 ad=1.32 pd=8.33 as=1.32 ps=8.33 w=8 l=0.5
X24 CSoutput.t193 commonsourceibias.t89 gnd.t210 gnd.t115 sky130_fd_pr__nfet_01v8 ad=1.155 pd=7.33 as=1.155 ps=7.33 w=7 l=1
X25 minus.t4 gnd.t373 gnd.t375 gnd.t374 sky130_fd_pr__nfet_01v8 ad=0.165 pd=1.33 as=0.165 ps=1.33 w=1 l=0.5
X26 CSoutput.t58 commonsourceibias.t90 gnd.t209 gnd.t137 sky130_fd_pr__nfet_01v8 ad=1.155 pd=7.33 as=1.155 ps=7.33 w=7 l=1
X27 gnd.t208 commonsourceibias.t91 CSoutput.t54 gnd.t96 sky130_fd_pr__nfet_01v8 ad=1.155 pd=7.33 as=1.155 ps=7.33 w=7 l=1
X28 gnd.t372 gnd.t369 gnd.t371 gnd.t370 sky130_fd_pr__nfet_01v8 ad=2.34 pd=12.78 as=0 ps=0 w=6 l=2
X29 gnd.t368 gnd.t366 gnd.t367 gnd.t284 sky130_fd_pr__nfet_01v8 ad=2.73 pd=14.78 as=0 ps=0 w=7 l=1
X30 commonsourceibias.t15 commonsourceibias.t14 gnd.t207 gnd.t65 sky130_fd_pr__nfet_01v8 ad=1.155 pd=7.33 as=1.155 ps=7.33 w=7 l=1
X31 CSoutput.t204 commonsourceibias.t92 gnd.t206 gnd.t22 sky130_fd_pr__nfet_01v8 ad=1.155 pd=7.33 as=1.155 ps=7.33 w=7 l=1
X32 gnd.t365 gnd.t363 gnd.t364 gnd.t280 sky130_fd_pr__nfet_01v8 ad=2.73 pd=14.78 as=0 ps=0 w=7 l=1
X33 a_n7636_8799.t6 a_n2318_13878.t58 a_n2318_8322.t26 vdd.t0 sky130_fd_pr__pfet_01v8 ad=1.485 pd=9.33 as=3.51 ps=18.78 w=9 l=0.5
X34 vdd.t260 a_n7636_8799.t45 CSoutput.t186 vdd.t233 sky130_fd_pr__pfet_01v8 ad=1.32 pd=8.33 as=1.32 ps=8.33 w=8 l=0.5
X35 CSoutput.t185 a_n7636_8799.t46 vdd.t259 vdd.t188 sky130_fd_pr__pfet_01v8 ad=1.32 pd=8.33 as=1.32 ps=8.33 w=8 l=0.5
X36 vdd.t258 a_n7636_8799.t47 CSoutput.t184 vdd.t230 sky130_fd_pr__pfet_01v8 ad=1.32 pd=8.33 as=1.32 ps=8.33 w=8 l=0.5
X37 a_n7636_8799.t19 a_n2318_13878.t59 a_n2318_8322.t25 vdd.t32 sky130_fd_pr__pfet_01v8 ad=1.485 pd=9.33 as=3.51 ps=18.78 w=9 l=0.5
X38 CSoutput.t210 commonsourceibias.t93 gnd.t205 gnd.t131 sky130_fd_pr__nfet_01v8 ad=1.155 pd=7.33 as=1.155 ps=7.33 w=7 l=1
X39 gnd.t204 commonsourceibias.t94 CSoutput.t198 gnd.t107 sky130_fd_pr__nfet_01v8 ad=1.155 pd=7.33 as=1.155 ps=7.33 w=7 l=1
X40 gnd.t362 gnd.t360 gnd.t361 gnd.t288 sky130_fd_pr__nfet_01v8 ad=2.73 pd=14.78 as=0 ps=0 w=7 l=1
X41 a_n7636_8799.t34 plus.t6 a_n2903_n3924.t27 gnd.t2 sky130_fd_pr__nfet_01v8 ad=1.155 pd=7.33 as=1.155 ps=7.33 w=7 l=0.5
X42 CSoutput.t82 commonsourceibias.t95 gnd.t203 gnd.t74 sky130_fd_pr__nfet_01v8 ad=1.155 pd=7.33 as=1.155 ps=7.33 w=7 l=1
X43 CSoutput.t71 commonsourceibias.t96 gnd.t202 gnd.t85 sky130_fd_pr__nfet_01v8 ad=1.155 pd=7.33 as=1.155 ps=7.33 w=7 l=1
X44 vdd.t122 vdd.t120 vdd.t121 vdd.t51 sky130_fd_pr__pfet_01v8 ad=3.51 pd=18.78 as=0 ps=0 w=9 l=0.5
X45 CSoutput.t211 commonsourceibias.t97 gnd.t201 gnd.t100 sky130_fd_pr__nfet_01v8 ad=1.155 pd=7.33 as=1.155 ps=7.33 w=7 l=1
X46 CSoutput.t183 a_n7636_8799.t48 vdd.t257 vdd.t220 sky130_fd_pr__pfet_01v8 ad=1.32 pd=8.33 as=1.32 ps=8.33 w=8 l=0.5
X47 CSoutput.t182 a_n7636_8799.t49 vdd.t256 vdd.t179 sky130_fd_pr__pfet_01v8 ad=1.32 pd=8.33 as=3.12 ps=16.78 w=8 l=0.5
X48 a_n2903_n3924.t39 diffpairibias.t16 gnd.t230 gnd.t229 sky130_fd_pr__nfet_01v8 ad=2.73 pd=14.78 as=2.73 ps=14.78 w=7 l=1
X49 gnd.t200 commonsourceibias.t98 CSoutput.t199 gnd.t37 sky130_fd_pr__nfet_01v8 ad=2.73 pd=14.78 as=1.155 ps=7.33 w=7 l=1
X50 a_n2903_n3924.t43 minus.t5 a_n2318_13878.t15 gnd.t242 sky130_fd_pr__nfet_01v8 ad=1.155 pd=7.33 as=1.155 ps=7.33 w=7 l=0.5
X51 gnd.t199 commonsourceibias.t99 CSoutput.t83 gnd.t70 sky130_fd_pr__nfet_01v8 ad=1.155 pd=7.33 as=1.155 ps=7.33 w=7 l=1
X52 a_n2903_n3924.t26 plus.t7 a_n7636_8799.t16 gnd.t227 sky130_fd_pr__nfet_01v8 ad=1.155 pd=7.33 as=1.155 ps=7.33 w=7 l=0.5
X53 CSoutput.t0 commonsourceibias.t100 gnd.t198 gnd.t126 sky130_fd_pr__nfet_01v8 ad=1.155 pd=7.33 as=1.155 ps=7.33 w=7 l=1
X54 CSoutput.t9 commonsourceibias.t101 gnd.t197 gnd.t47 sky130_fd_pr__nfet_01v8 ad=1.155 pd=7.33 as=2.73 ps=14.78 w=7 l=1
X55 a_n2318_13878.t4 minus.t6 a_n2903_n3924.t4 gnd.t4 sky130_fd_pr__nfet_01v8 ad=1.155 pd=7.33 as=1.155 ps=7.33 w=7 l=0.5
X56 gnd.t196 commonsourceibias.t16 commonsourceibias.t17 gnd.t67 sky130_fd_pr__nfet_01v8 ad=1.155 pd=7.33 as=1.155 ps=7.33 w=7 l=1
X57 CSoutput.t84 commonsourceibias.t102 gnd.t195 gnd.t100 sky130_fd_pr__nfet_01v8 ad=1.155 pd=7.33 as=1.155 ps=7.33 w=7 l=1
X58 a_n2903_n3924.t25 plus.t8 a_n7636_8799.t10 gnd.t220 sky130_fd_pr__nfet_01v8 ad=1.155 pd=7.33 as=1.155 ps=7.33 w=7 l=0.5
X59 CSoutput.t181 a_n7636_8799.t50 vdd.t255 vdd.t146 sky130_fd_pr__pfet_01v8 ad=1.32 pd=8.33 as=1.32 ps=8.33 w=8 l=0.5
X60 a_n2903_n3924.t53 minus.t7 a_n2318_13878.t55 gnd.t263 sky130_fd_pr__nfet_01v8 ad=1.155 pd=7.33 as=1.155 ps=7.33 w=7 l=0.5
X61 gnd.t194 commonsourceibias.t103 CSoutput.t95 gnd.t122 sky130_fd_pr__nfet_01v8 ad=1.155 pd=7.33 as=1.155 ps=7.33 w=7 l=1
X62 a_n2140_13878.t14 a_n2318_13878.t47 a_n2318_13878.t48 vdd.t26 sky130_fd_pr__pfet_01v8 ad=1.485 pd=9.33 as=1.485 ps=9.33 w=9 l=0.5
X63 vdd.t119 vdd.t117 vdd.t118 vdd.t84 sky130_fd_pr__pfet_01v8 ad=3.12 pd=16.78 as=0 ps=0 w=8 l=0.5
X64 CSoutput.t72 commonsourceibias.t104 gnd.t193 gnd.t56 sky130_fd_pr__nfet_01v8 ad=1.155 pd=7.33 as=1.155 ps=7.33 w=7 l=1
X65 CSoutput.t78 commonsourceibias.t105 gnd.t192 gnd.t80 sky130_fd_pr__nfet_01v8 ad=1.155 pd=7.33 as=1.155 ps=7.33 w=7 l=1
X66 gnd.t191 commonsourceibias.t106 CSoutput.t29 gnd.t122 sky130_fd_pr__nfet_01v8 ad=1.155 pd=7.33 as=1.155 ps=7.33 w=7 l=1
X67 vdd.t41 CSoutput.t218 output.t17 gnd.t259 sky130_fd_pr__nfet_01v8 ad=0.825 pd=5.33 as=0.825 ps=5.33 w=5 l=1
X68 a_n2318_13878.t22 a_n2318_13878.t21 a_n2140_13878.t13 vdd.t27 sky130_fd_pr__pfet_01v8 ad=1.485 pd=9.33 as=1.485 ps=9.33 w=9 l=0.5
X69 CSoutput.t10 commonsourceibias.t107 gnd.t190 gnd.t39 sky130_fd_pr__nfet_01v8 ad=1.155 pd=7.33 as=1.155 ps=7.33 w=7 l=1
X70 gnd.t189 commonsourceibias.t108 CSoutput.t194 gnd.t117 sky130_fd_pr__nfet_01v8 ad=1.155 pd=7.33 as=1.155 ps=7.33 w=7 l=1
X71 CSoutput.t180 a_n7636_8799.t51 vdd.t243 vdd.t186 sky130_fd_pr__pfet_01v8 ad=1.32 pd=8.33 as=1.32 ps=8.33 w=8 l=0.5
X72 CSoutput.t219 a_n2318_8322.t2 sky130_fd_pr__cap_mim_m3_1 l=12 w=12
X73 vdd.t116 vdd.t114 vdd.t115 vdd.t97 sky130_fd_pr__pfet_01v8 ad=3.51 pd=18.78 as=0 ps=0 w=9 l=0.5
X74 gnd.t188 commonsourceibias.t0 commonsourceibias.t1 gnd.t28 sky130_fd_pr__nfet_01v8 ad=1.155 pd=7.33 as=1.155 ps=7.33 w=7 l=1
X75 a_n2903_n3924.t40 minus.t8 a_n2318_13878.t12 gnd.t221 sky130_fd_pr__nfet_01v8 ad=1.155 pd=7.33 as=1.155 ps=7.33 w=7 l=0.5
X76 vdd.t253 a_n7636_8799.t52 CSoutput.t179 vdd.t211 sky130_fd_pr__pfet_01v8 ad=1.32 pd=8.33 as=1.32 ps=8.33 w=8 l=0.5
X77 CSoutput.t59 commonsourceibias.t109 gnd.t187 gnd.t115 sky130_fd_pr__nfet_01v8 ad=1.155 pd=7.33 as=1.155 ps=7.33 w=7 l=1
X78 gnd.t359 gnd.t357 gnd.t358 gnd.t288 sky130_fd_pr__nfet_01v8 ad=2.73 pd=14.78 as=0 ps=0 w=7 l=1
X79 CSoutput.t56 commonsourceibias.t110 gnd.t186 gnd.t80 sky130_fd_pr__nfet_01v8 ad=1.155 pd=7.33 as=1.155 ps=7.33 w=7 l=1
X80 diffpairibias.t15 diffpairibias.t14 gnd.t236 gnd.t235 sky130_fd_pr__nfet_01v8 ad=2.73 pd=14.78 as=2.73 ps=14.78 w=7 l=1
X81 gnd.t185 commonsourceibias.t111 CSoutput.t55 gnd.t20 sky130_fd_pr__nfet_01v8 ad=1.155 pd=7.33 as=1.155 ps=7.33 w=7 l=1
X82 CSoutput.t205 commonsourceibias.t112 gnd.t184 gnd.t47 sky130_fd_pr__nfet_01v8 ad=1.155 pd=7.33 as=2.73 ps=14.78 w=7 l=1
X83 CSoutput.t200 commonsourceibias.t113 gnd.t183 gnd.t94 sky130_fd_pr__nfet_01v8 ad=1.155 pd=7.33 as=1.155 ps=7.33 w=7 l=1
X84 gnd.t182 commonsourceibias.t114 CSoutput.t64 gnd.t41 sky130_fd_pr__nfet_01v8 ad=1.155 pd=7.33 as=1.155 ps=7.33 w=7 l=1
X85 a_n7636_8799.t27 a_n2318_13878.t60 a_n2318_8322.t24 vdd.t17 sky130_fd_pr__pfet_01v8 ad=1.485 pd=9.33 as=1.485 ps=9.33 w=9 l=0.5
X86 gnd.t181 commonsourceibias.t115 CSoutput.t30 gnd.t77 sky130_fd_pr__nfet_01v8 ad=1.155 pd=7.33 as=1.155 ps=7.33 w=7 l=1
X87 CSoutput.t178 a_n7636_8799.t53 vdd.t254 vdd.t217 sky130_fd_pr__pfet_01v8 ad=1.32 pd=8.33 as=1.32 ps=8.33 w=8 l=0.5
X88 gnd.t180 commonsourceibias.t116 CSoutput.t85 gnd.t33 sky130_fd_pr__nfet_01v8 ad=1.155 pd=7.33 as=1.155 ps=7.33 w=7 l=1
X89 a_n2318_13878.t6 minus.t9 a_n2903_n3924.t31 gnd.t9 sky130_fd_pr__nfet_01v8 ad=1.155 pd=7.33 as=2.73 ps=14.78 w=7 l=0.5
X90 vdd.t252 a_n7636_8799.t54 CSoutput.t177 vdd.t230 sky130_fd_pr__pfet_01v8 ad=1.32 pd=8.33 as=1.32 ps=8.33 w=8 l=0.5
X91 gnd.t356 gnd.t354 plus.t3 gnd.t355 sky130_fd_pr__nfet_01v8 ad=0.165 pd=1.33 as=0.39 ps=2.78 w=1 l=0.5
X92 vdd.t251 a_n7636_8799.t55 CSoutput.t176 vdd.t154 sky130_fd_pr__pfet_01v8 ad=1.32 pd=8.33 as=1.32 ps=8.33 w=8 l=0.5
X93 CSoutput.t73 commonsourceibias.t117 gnd.t179 gnd.t94 sky130_fd_pr__nfet_01v8 ad=1.155 pd=7.33 as=1.155 ps=7.33 w=7 l=1
X94 diffpairibias.t13 diffpairibias.t12 gnd.t388 gnd.t387 sky130_fd_pr__nfet_01v8 ad=2.73 pd=14.78 as=2.73 ps=14.78 w=7 l=1
X95 CSoutput.t175 a_n7636_8799.t56 vdd.t250 vdd.t161 sky130_fd_pr__pfet_01v8 ad=1.32 pd=8.33 as=1.32 ps=8.33 w=8 l=0.5
X96 gnd.t178 commonsourceibias.t18 commonsourceibias.t19 gnd.t82 sky130_fd_pr__nfet_01v8 ad=1.155 pd=7.33 as=1.155 ps=7.33 w=7 l=1
X97 gnd.t177 commonsourceibias.t118 CSoutput.t212 gnd.t96 sky130_fd_pr__nfet_01v8 ad=1.155 pd=7.33 as=1.155 ps=7.33 w=7 l=1
X98 CSoutput.t201 commonsourceibias.t119 gnd.t176 gnd.t39 sky130_fd_pr__nfet_01v8 ad=1.155 pd=7.33 as=1.155 ps=7.33 w=7 l=1
X99 gnd.t175 commonsourceibias.t120 CSoutput.t214 gnd.t82 sky130_fd_pr__nfet_01v8 ad=1.155 pd=7.33 as=1.155 ps=7.33 w=7 l=1
X100 CSoutput.t86 commonsourceibias.t121 gnd.t174 gnd.t137 sky130_fd_pr__nfet_01v8 ad=1.155 pd=7.33 as=1.155 ps=7.33 w=7 l=1
X101 CSoutput.t90 commonsourceibias.t122 gnd.t173 gnd.t60 sky130_fd_pr__nfet_01v8 ad=1.155 pd=7.33 as=1.155 ps=7.33 w=7 l=1
X102 vdd.t249 a_n7636_8799.t57 CSoutput.t174 vdd.t144 sky130_fd_pr__pfet_01v8 ad=1.32 pd=8.33 as=1.32 ps=8.33 w=8 l=0.5
X103 CSoutput.t87 commonsourceibias.t123 gnd.t172 gnd.t49 sky130_fd_pr__nfet_01v8 ad=1.155 pd=7.33 as=1.155 ps=7.33 w=7 l=1
X104 CSoutput.t173 a_n7636_8799.t58 vdd.t248 vdd.t235 sky130_fd_pr__pfet_01v8 ad=1.32 pd=8.33 as=1.32 ps=8.33 w=8 l=0.5
X105 gnd.t171 commonsourceibias.t124 CSoutput.t91 gnd.t107 sky130_fd_pr__nfet_01v8 ad=1.155 pd=7.33 as=1.155 ps=7.33 w=7 l=1
X106 CSoutput.t172 a_n7636_8799.t59 vdd.t247 vdd.t179 sky130_fd_pr__pfet_01v8 ad=1.32 pd=8.33 as=3.12 ps=16.78 w=8 l=0.5
X107 CSoutput.t171 a_n7636_8799.t60 vdd.t242 vdd.t196 sky130_fd_pr__pfet_01v8 ad=1.32 pd=8.33 as=3.12 ps=16.78 w=8 l=0.5
X108 CSoutput.t170 a_n7636_8799.t61 vdd.t246 vdd.t235 sky130_fd_pr__pfet_01v8 ad=1.32 pd=8.33 as=1.32 ps=8.33 w=8 l=0.5
X109 plus.t2 gnd.t351 gnd.t353 gnd.t352 sky130_fd_pr__nfet_01v8 ad=0.165 pd=1.33 as=0.165 ps=1.33 w=1 l=0.5
X110 gnd.t167 commonsourceibias.t12 commonsourceibias.t13 gnd.t53 sky130_fd_pr__nfet_01v8 ad=1.155 pd=7.33 as=1.155 ps=7.33 w=7 l=1
X111 gnd.t166 commonsourceibias.t10 commonsourceibias.t11 gnd.t37 sky130_fd_pr__nfet_01v8 ad=2.73 pd=14.78 as=1.155 ps=7.33 w=7 l=1
X112 CSoutput.t74 commonsourceibias.t125 gnd.t170 gnd.t126 sky130_fd_pr__nfet_01v8 ad=1.155 pd=7.33 as=1.155 ps=7.33 w=7 l=1
X113 vdd.t38 CSoutput.t220 output.t16 gnd.t258 sky130_fd_pr__nfet_01v8 ad=0.825 pd=5.33 as=0.825 ps=5.33 w=5 l=1
X114 a_n7636_8799.t7 plus.t9 a_n2903_n3924.t24 gnd.t11 sky130_fd_pr__nfet_01v8 ad=1.155 pd=7.33 as=1.155 ps=7.33 w=7 l=0.5
X115 output.t15 CSoutput.t221 vdd.t39 gnd.t257 sky130_fd_pr__nfet_01v8 ad=0.825 pd=5.33 as=0.825 ps=5.33 w=5 l=1
X116 CSoutput.t23 commonsourceibias.t126 gnd.t169 gnd.t56 sky130_fd_pr__nfet_01v8 ad=1.155 pd=7.33 as=1.155 ps=7.33 w=7 l=1
X117 gnd.t168 commonsourceibias.t127 CSoutput.t11 gnd.t82 sky130_fd_pr__nfet_01v8 ad=1.155 pd=7.33 as=1.155 ps=7.33 w=7 l=1
X118 a_n2903_n3924.t35 diffpairibias.t17 gnd.t223 gnd.t222 sky130_fd_pr__nfet_01v8 ad=2.73 pd=14.78 as=2.73 ps=14.78 w=7 l=1
X119 CSoutput.t222 a_n2318_8322.t0 sky130_fd_pr__cap_mim_m3_1 l=12 w=12
X120 vdd.t245 a_n7636_8799.t62 CSoutput.t169 vdd.t200 sky130_fd_pr__pfet_01v8 ad=1.32 pd=8.33 as=1.32 ps=8.33 w=8 l=0.5
X121 gnd.t350 gnd.t348 gnd.t349 gnd.t276 sky130_fd_pr__nfet_01v8 ad=2.73 pd=14.78 as=0 ps=0 w=7 l=1
X122 a_n2903_n3924.t42 minus.t10 a_n2318_13878.t14 gnd.t228 sky130_fd_pr__nfet_01v8 ad=1.155 pd=7.33 as=1.155 ps=7.33 w=7 l=0.5
X123 a_n2318_13878.t34 a_n2318_13878.t33 a_n2140_13878.t12 vdd.t8 sky130_fd_pr__pfet_01v8 ad=1.485 pd=9.33 as=1.485 ps=9.33 w=9 l=0.5
X124 vdd.t244 a_n7636_8799.t63 CSoutput.t168 vdd.t190 sky130_fd_pr__pfet_01v8 ad=1.32 pd=8.33 as=1.32 ps=8.33 w=8 l=0.5
X125 vdd.t241 a_n7636_8799.t64 CSoutput.t167 vdd.t233 sky130_fd_pr__pfet_01v8 ad=1.32 pd=8.33 as=1.32 ps=8.33 w=8 l=0.5
X126 gnd.t165 commonsourceibias.t128 CSoutput.t196 gnd.t70 sky130_fd_pr__nfet_01v8 ad=1.155 pd=7.33 as=1.155 ps=7.33 w=7 l=1
X127 gnd.t347 gnd.t344 gnd.t346 gnd.t345 sky130_fd_pr__nfet_01v8 ad=1.95 pd=10.78 as=0 ps=0 w=5 l=1
X128 a_n7636_8799.t25 a_n2318_13878.t61 a_n2318_8322.t23 vdd.t43 sky130_fd_pr__pfet_01v8 ad=1.485 pd=9.33 as=1.485 ps=9.33 w=9 l=0.5
X129 a_n2318_13878.t36 a_n2318_13878.t35 a_n2140_13878.t11 vdd.t14 sky130_fd_pr__pfet_01v8 ad=3.51 pd=18.78 as=1.485 ps=9.33 w=9 l=0.5
X130 a_n2318_13878.t3 minus.t11 a_n2903_n3924.t3 gnd.t3 sky130_fd_pr__nfet_01v8 ad=1.155 pd=7.33 as=1.155 ps=7.33 w=7 l=0.5
X131 gnd.t343 gnd.t341 gnd.t342 gnd.t276 sky130_fd_pr__nfet_01v8 ad=2.73 pd=14.78 as=0 ps=0 w=7 l=1
X132 a_n2903_n3924.t23 plus.t10 a_n7636_8799.t38 gnd.t0 sky130_fd_pr__nfet_01v8 ad=1.155 pd=7.33 as=1.155 ps=7.33 w=7 l=0.5
X133 gnd.t164 commonsourceibias.t129 CSoutput.t60 gnd.t20 sky130_fd_pr__nfet_01v8 ad=1.155 pd=7.33 as=1.155 ps=7.33 w=7 l=1
X134 CSoutput.t206 commonsourceibias.t130 gnd.t163 gnd.t85 sky130_fd_pr__nfet_01v8 ad=1.155 pd=7.33 as=1.155 ps=7.33 w=7 l=1
X135 commonsourceibias.t9 commonsourceibias.t8 gnd.t162 gnd.t56 sky130_fd_pr__nfet_01v8 ad=1.155 pd=7.33 as=1.155 ps=7.33 w=7 l=1
X136 vdd.t240 a_n7636_8799.t65 CSoutput.t166 vdd.t158 sky130_fd_pr__pfet_01v8 ad=1.32 pd=8.33 as=1.32 ps=8.33 w=8 l=0.5
X137 CSoutput.t165 a_n7636_8799.t66 vdd.t239 vdd.t193 sky130_fd_pr__pfet_01v8 ad=1.32 pd=8.33 as=1.32 ps=8.33 w=8 l=0.5
X138 gnd.t161 commonsourceibias.t131 CSoutput.t202 gnd.t30 sky130_fd_pr__nfet_01v8 ad=1.155 pd=7.33 as=1.155 ps=7.33 w=7 l=1
X139 a_n2903_n3924.t36 minus.t12 a_n2318_13878.t9 gnd.t224 sky130_fd_pr__nfet_01v8 ad=2.73 pd=14.78 as=1.155 ps=7.33 w=7 l=0.5
X140 gnd.t160 commonsourceibias.t132 CSoutput.t49 gnd.t45 sky130_fd_pr__nfet_01v8 ad=1.155 pd=7.33 as=1.155 ps=7.33 w=7 l=1
X141 vdd.t113 vdd.t111 vdd.t112 vdd.t63 sky130_fd_pr__pfet_01v8 ad=3.12 pd=16.78 as=0 ps=0 w=8 l=0.5
X142 vdd.t110 vdd.t108 vdd.t109 vdd.t101 sky130_fd_pr__pfet_01v8 ad=3.51 pd=18.78 as=0 ps=0 w=9 l=0.5
X143 gnd.t159 commonsourceibias.t20 commonsourceibias.t21 gnd.t35 sky130_fd_pr__nfet_01v8 ad=1.155 pd=7.33 as=1.155 ps=7.33 w=7 l=1
X144 CSoutput.t164 a_n7636_8799.t67 vdd.t238 vdd.t161 sky130_fd_pr__pfet_01v8 ad=1.32 pd=8.33 as=1.32 ps=8.33 w=8 l=0.5
X145 gnd.t158 commonsourceibias.t133 CSoutput.t65 gnd.t67 sky130_fd_pr__nfet_01v8 ad=1.155 pd=7.33 as=1.155 ps=7.33 w=7 l=1
X146 vdd.t107 vdd.t104 vdd.t106 vdd.t105 sky130_fd_pr__pfet_01v8 ad=3.51 pd=18.78 as=0 ps=0 w=9 l=0.5
X147 gnd.t340 gnd.t338 gnd.t339 gnd.t280 sky130_fd_pr__nfet_01v8 ad=2.73 pd=14.78 as=0 ps=0 w=7 l=1
X148 vdd.t45 a_n2318_13878.t62 a_n2318_8322.t11 vdd.t44 sky130_fd_pr__pfet_01v8 ad=1.485 pd=9.33 as=1.485 ps=9.33 w=9 l=0.5
X149 a_n2318_13878.t20 a_n2318_13878.t19 a_n2140_13878.t10 vdd.t33 sky130_fd_pr__pfet_01v8 ad=3.51 pd=18.78 as=1.485 ps=9.33 w=9 l=0.5
X150 CSoutput.t34 commonsourceibias.t134 gnd.t157 gnd.t58 sky130_fd_pr__nfet_01v8 ad=1.155 pd=7.33 as=2.73 ps=14.78 w=7 l=1
X151 a_n2318_8322.t10 a_n2318_13878.t63 vdd.t10 vdd.t9 sky130_fd_pr__pfet_01v8 ad=1.485 pd=9.33 as=1.485 ps=9.33 w=9 l=0.5
X152 CSoutput.t163 a_n7636_8799.t68 vdd.t237 vdd.t196 sky130_fd_pr__pfet_01v8 ad=1.32 pd=8.33 as=3.12 ps=16.78 w=8 l=0.5
X153 CSoutput.t162 a_n7636_8799.t69 vdd.t236 vdd.t235 sky130_fd_pr__pfet_01v8 ad=1.32 pd=8.33 as=1.32 ps=8.33 w=8 l=0.5
X154 gnd.t156 commonsourceibias.t135 CSoutput.t39 gnd.t96 sky130_fd_pr__nfet_01v8 ad=1.155 pd=7.33 as=1.155 ps=7.33 w=7 l=1
X155 a_n2903_n3924.t33 diffpairibias.t18 gnd.t14 gnd.t13 sky130_fd_pr__nfet_01v8 ad=2.73 pd=14.78 as=2.73 ps=14.78 w=7 l=1
X156 output.t14 CSoutput.t223 vdd.t28 gnd.t256 sky130_fd_pr__nfet_01v8 ad=0.825 pd=5.33 as=0.825 ps=5.33 w=5 l=1
X157 vdd.t29 CSoutput.t224 output.t13 gnd.t255 sky130_fd_pr__nfet_01v8 ad=0.825 pd=5.33 as=0.825 ps=5.33 w=5 l=1
X158 gnd.t155 commonsourceibias.t136 CSoutput.t44 gnd.t122 sky130_fd_pr__nfet_01v8 ad=1.155 pd=7.33 as=1.155 ps=7.33 w=7 l=1
X159 a_n2318_13878.t8 minus.t13 a_n2903_n3924.t34 gnd.t19 sky130_fd_pr__nfet_01v8 ad=1.155 pd=7.33 as=1.155 ps=7.33 w=7 l=0.5
X160 gnd.t150 commonsourceibias.t26 commonsourceibias.t27 gnd.t41 sky130_fd_pr__nfet_01v8 ad=1.155 pd=7.33 as=1.155 ps=7.33 w=7 l=1
X161 CSoutput.t16 commonsourceibias.t137 gnd.t154 gnd.t137 sky130_fd_pr__nfet_01v8 ad=1.155 pd=7.33 as=1.155 ps=7.33 w=7 l=1
X162 gnd.t153 commonsourceibias.t138 CSoutput.t24 gnd.t53 sky130_fd_pr__nfet_01v8 ad=1.155 pd=7.33 as=1.155 ps=7.33 w=7 l=1
X163 CSoutput.t50 commonsourceibias.t139 gnd.t152 gnd.t24 sky130_fd_pr__nfet_01v8 ad=1.155 pd=7.33 as=1.155 ps=7.33 w=7 l=1
X164 CSoutput.t75 commonsourceibias.t140 gnd.t151 gnd.t58 sky130_fd_pr__nfet_01v8 ad=1.155 pd=7.33 as=2.73 ps=14.78 w=7 l=1
X165 CSoutput.t213 commonsourceibias.t141 gnd.t149 gnd.t131 sky130_fd_pr__nfet_01v8 ad=1.155 pd=7.33 as=1.155 ps=7.33 w=7 l=1
X166 a_n2903_n3924.t22 plus.t11 a_n7636_8799.t22 gnd.t10 sky130_fd_pr__nfet_01v8 ad=1.155 pd=7.33 as=1.155 ps=7.33 w=7 l=0.5
X167 vdd.t16 a_n2318_13878.t64 a_n2140_13878.t22 vdd.t15 sky130_fd_pr__pfet_01v8 ad=1.485 pd=9.33 as=1.485 ps=9.33 w=9 l=0.5
X168 gnd.t337 gnd.t335 minus.t3 gnd.t336 sky130_fd_pr__nfet_01v8 ad=0.165 pd=1.33 as=0.39 ps=2.78 w=1 l=0.5
X169 vdd.t103 vdd.t100 vdd.t102 vdd.t101 sky130_fd_pr__pfet_01v8 ad=3.51 pd=18.78 as=0 ps=0 w=9 l=0.5
X170 vdd.t30 CSoutput.t225 output.t12 gnd.t254 sky130_fd_pr__nfet_01v8 ad=0.825 pd=5.33 as=0.825 ps=5.33 w=5 l=1
X171 gnd.t334 gnd.t332 gnd.t333 gnd.t276 sky130_fd_pr__nfet_01v8 ad=2.73 pd=14.78 as=0 ps=0 w=7 l=1
X172 vdd.t234 a_n7636_8799.t70 CSoutput.t161 vdd.t233 sky130_fd_pr__pfet_01v8 ad=1.32 pd=8.33 as=1.32 ps=8.33 w=8 l=0.5
X173 a_n7636_8799.t21 plus.t12 a_n2903_n3924.t21 gnd.t225 sky130_fd_pr__nfet_01v8 ad=1.155 pd=7.33 as=2.73 ps=14.78 w=7 l=0.5
X174 vdd.t99 vdd.t96 vdd.t98 vdd.t97 sky130_fd_pr__pfet_01v8 ad=3.51 pd=18.78 as=0 ps=0 w=9 l=0.5
X175 a_n2318_8322.t9 a_n2318_13878.t65 vdd.t49 vdd.t48 sky130_fd_pr__pfet_01v8 ad=3.51 pd=18.78 as=1.485 ps=9.33 w=9 l=0.5
X176 a_n7636_8799.t31 a_n2318_13878.t66 a_n2318_8322.t22 vdd.t7 sky130_fd_pr__pfet_01v8 ad=1.485 pd=9.33 as=1.485 ps=9.33 w=9 l=0.5
X177 a_n2318_13878.t16 minus.t14 a_n2903_n3924.t44 gnd.t12 sky130_fd_pr__nfet_01v8 ad=1.155 pd=7.33 as=1.155 ps=7.33 w=7 l=0.5
X178 CSoutput.t160 a_n7636_8799.t71 vdd.t232 vdd.t170 sky130_fd_pr__pfet_01v8 ad=1.32 pd=8.33 as=1.32 ps=8.33 w=8 l=0.5
X179 diffpairibias.t11 diffpairibias.t10 gnd.t385 gnd.t384 sky130_fd_pr__nfet_01v8 ad=2.73 pd=14.78 as=2.73 ps=14.78 w=7 l=1
X180 vdd.t231 a_n7636_8799.t72 CSoutput.t159 vdd.t230 sky130_fd_pr__pfet_01v8 ad=1.32 pd=8.33 as=1.32 ps=8.33 w=8 l=0.5
X181 a_n2318_13878.t44 a_n2318_13878.t43 a_n2140_13878.t9 vdd.t47 sky130_fd_pr__pfet_01v8 ad=1.485 pd=9.33 as=1.485 ps=9.33 w=9 l=0.5
X182 vdd.t229 a_n7636_8799.t73 CSoutput.t158 vdd.t158 sky130_fd_pr__pfet_01v8 ad=1.32 pd=8.33 as=1.32 ps=8.33 w=8 l=0.5
X183 CSoutput.t203 commonsourceibias.t142 gnd.t148 gnd.t88 sky130_fd_pr__nfet_01v8 ad=1.155 pd=7.33 as=1.155 ps=7.33 w=7 l=1
X184 a_n7636_8799.t39 a_n2318_13878.t67 a_n2318_8322.t21 vdd.t42 sky130_fd_pr__pfet_01v8 ad=1.485 pd=9.33 as=1.485 ps=9.33 w=9 l=0.5
X185 CSoutput.t157 a_n7636_8799.t74 vdd.t228 vdd.t193 sky130_fd_pr__pfet_01v8 ad=1.32 pd=8.33 as=1.32 ps=8.33 w=8 l=0.5
X186 commonsourceibias.t25 commonsourceibias.t24 gnd.t147 gnd.t22 sky130_fd_pr__nfet_01v8 ad=1.155 pd=7.33 as=1.155 ps=7.33 w=7 l=1
X187 output.t11 CSoutput.t226 vdd.t31 gnd.t253 sky130_fd_pr__nfet_01v8 ad=0.825 pd=5.33 as=0.825 ps=5.33 w=5 l=1
X188 gnd.t146 commonsourceibias.t143 CSoutput.t192 gnd.t117 sky130_fd_pr__nfet_01v8 ad=1.155 pd=7.33 as=1.155 ps=7.33 w=7 l=1
X189 a_n2140_13878.t8 a_n2318_13878.t25 a_n2318_13878.t26 vdd.t43 sky130_fd_pr__pfet_01v8 ad=1.485 pd=9.33 as=1.485 ps=9.33 w=9 l=0.5
X190 gnd.t145 commonsourceibias.t22 commonsourceibias.t23 gnd.t135 sky130_fd_pr__nfet_01v8 ad=1.155 pd=7.33 as=1.155 ps=7.33 w=7 l=1
X191 vdd.t95 vdd.t93 vdd.t94 vdd.t63 sky130_fd_pr__pfet_01v8 ad=3.12 pd=16.78 as=0 ps=0 w=8 l=0.5
X192 CSoutput.t215 commonsourceibias.t144 gnd.t144 gnd.t85 sky130_fd_pr__nfet_01v8 ad=1.155 pd=7.33 as=1.155 ps=7.33 w=7 l=1
X193 a_n7636_8799.t33 plus.t13 a_n2903_n3924.t20 gnd.t241 sky130_fd_pr__nfet_01v8 ad=1.155 pd=7.33 as=1.155 ps=7.33 w=7 l=0.5
X194 a_n2903_n3924.t30 minus.t15 a_n2318_13878.t5 gnd.t8 sky130_fd_pr__nfet_01v8 ad=1.155 pd=7.33 as=1.155 ps=7.33 w=7 l=0.5
X195 a_n2903_n3924.t38 minus.t16 a_n2318_13878.t11 gnd.t226 sky130_fd_pr__nfet_01v8 ad=2.73 pd=14.78 as=1.155 ps=7.33 w=7 l=0.5
X196 CSoutput.t156 a_n7636_8799.t75 vdd.t227 vdd.t217 sky130_fd_pr__pfet_01v8 ad=1.32 pd=8.33 as=1.32 ps=8.33 w=8 l=0.5
X197 output.t10 CSoutput.t227 vdd.t23 gnd.t252 sky130_fd_pr__nfet_01v8 ad=0.825 pd=5.33 as=0.825 ps=5.33 w=5 l=1
X198 a_n2318_13878.t54 minus.t17 a_n2903_n3924.t50 gnd.t386 sky130_fd_pr__nfet_01v8 ad=1.155 pd=7.33 as=1.155 ps=7.33 w=7 l=0.5
X199 CSoutput.t89 commonsourceibias.t145 gnd.t143 gnd.t80 sky130_fd_pr__nfet_01v8 ad=1.155 pd=7.33 as=1.155 ps=7.33 w=7 l=1
X200 vdd.t22 a_n2318_13878.t68 a_n2318_8322.t8 vdd.t21 sky130_fd_pr__pfet_01v8 ad=1.485 pd=9.33 as=3.51 ps=18.78 w=9 l=0.5
X201 a_n2140_13878.t7 a_n2318_13878.t29 a_n2318_13878.t30 vdd.t0 sky130_fd_pr__pfet_01v8 ad=1.485 pd=9.33 as=3.51 ps=18.78 w=9 l=0.5
X202 vdd.t226 a_n7636_8799.t76 CSoutput.t155 vdd.t215 sky130_fd_pr__pfet_01v8 ad=1.32 pd=8.33 as=1.32 ps=8.33 w=8 l=0.5
X203 gnd.t142 commonsourceibias.t146 CSoutput.t12 gnd.t45 sky130_fd_pr__nfet_01v8 ad=1.155 pd=7.33 as=1.155 ps=7.33 w=7 l=1
X204 gnd.t141 commonsourceibias.t147 CSoutput.t197 gnd.t135 sky130_fd_pr__nfet_01v8 ad=1.155 pd=7.33 as=1.155 ps=7.33 w=7 l=1
X205 a_n2318_13878.t38 a_n2318_13878.t37 a_n2140_13878.t6 vdd.t20 sky130_fd_pr__pfet_01v8 ad=1.485 pd=9.33 as=1.485 ps=9.33 w=9 l=0.5
X206 gnd.t140 commonsourceibias.t148 CSoutput.t61 gnd.t77 sky130_fd_pr__nfet_01v8 ad=1.155 pd=7.33 as=1.155 ps=7.33 w=7 l=1
X207 gnd.t139 commonsourceibias.t149 CSoutput.t57 gnd.t107 sky130_fd_pr__nfet_01v8 ad=1.155 pd=7.33 as=1.155 ps=7.33 w=7 l=1
X208 commonsourceibias.t33 commonsourceibias.t32 gnd.t138 gnd.t137 sky130_fd_pr__nfet_01v8 ad=1.155 pd=7.33 as=1.155 ps=7.33 w=7 l=1
X209 gnd.t136 commonsourceibias.t150 CSoutput.t66 gnd.t135 sky130_fd_pr__nfet_01v8 ad=1.155 pd=7.33 as=1.155 ps=7.33 w=7 l=1
X210 gnd.t331 gnd.t329 gnd.t330 gnd.t284 sky130_fd_pr__nfet_01v8 ad=2.73 pd=14.78 as=0 ps=0 w=7 l=1
X211 gnd.t134 commonsourceibias.t151 CSoutput.t17 gnd.t62 sky130_fd_pr__nfet_01v8 ad=2.73 pd=14.78 as=1.155 ps=7.33 w=7 l=1
X212 vdd.t225 a_n7636_8799.t77 CSoutput.t154 vdd.t172 sky130_fd_pr__pfet_01v8 ad=1.32 pd=8.33 as=1.32 ps=8.33 w=8 l=0.5
X213 CSoutput.t13 commonsourceibias.t152 gnd.t133 gnd.t74 sky130_fd_pr__nfet_01v8 ad=1.155 pd=7.33 as=1.155 ps=7.33 w=7 l=1
X214 a_n2903_n3924.t55 diffpairibias.t19 gnd.t404 gnd.t403 sky130_fd_pr__nfet_01v8 ad=2.73 pd=14.78 as=2.73 ps=14.78 w=7 l=1
X215 gnd.t328 gnd.t325 gnd.t327 gnd.t326 sky130_fd_pr__nfet_01v8 ad=2.73 pd=14.78 as=0 ps=0 w=7 l=1
X216 a_n2903_n3924.t29 diffpairibias.t20 gnd.t6 gnd.t5 sky130_fd_pr__nfet_01v8 ad=2.73 pd=14.78 as=2.73 ps=14.78 w=7 l=1
X217 commonsourceibias.t31 commonsourceibias.t30 gnd.t132 gnd.t131 sky130_fd_pr__nfet_01v8 ad=1.155 pd=7.33 as=1.155 ps=7.33 w=7 l=1
X218 a_n2318_13878.t1 minus.t18 a_n2903_n3924.t1 gnd.t1 sky130_fd_pr__nfet_01v8 ad=1.155 pd=7.33 as=1.155 ps=7.33 w=7 l=0.5
X219 vdd.t224 a_n7636_8799.t78 CSoutput.t153 vdd.t200 sky130_fd_pr__pfet_01v8 ad=1.32 pd=8.33 as=1.32 ps=8.33 w=8 l=0.5
X220 vdd.t223 a_n7636_8799.t79 CSoutput.t152 vdd.t177 sky130_fd_pr__pfet_01v8 ad=3.12 pd=16.78 as=1.32 ps=8.33 w=8 l=0.5
X221 gnd.t324 gnd.t322 gnd.t323 gnd.t288 sky130_fd_pr__nfet_01v8 ad=2.73 pd=14.78 as=0 ps=0 w=7 l=1
X222 gnd.t321 gnd.t319 minus.t2 gnd.t320 sky130_fd_pr__nfet_01v8 ad=0.165 pd=1.33 as=0.165 ps=1.33 w=1 l=0.5
X223 CSoutput.t92 commonsourceibias.t153 gnd.t130 gnd.t88 sky130_fd_pr__nfet_01v8 ad=1.155 pd=7.33 as=1.155 ps=7.33 w=7 l=1
X224 CSoutput.t93 commonsourceibias.t154 gnd.t129 gnd.t60 sky130_fd_pr__nfet_01v8 ad=1.155 pd=7.33 as=1.155 ps=7.33 w=7 l=1
X225 commonsourceibias.t29 commonsourceibias.t28 gnd.t128 gnd.t126 sky130_fd_pr__nfet_01v8 ad=1.155 pd=7.33 as=1.155 ps=7.33 w=7 l=1
X226 gnd.t318 gnd.t315 gnd.t317 gnd.t316 sky130_fd_pr__nfet_01v8 ad=1.95 pd=10.78 as=0 ps=0 w=5 l=1
X227 output.t0 outputibias.t8 gnd.t232 gnd.t231 sky130_fd_pr__nfet_01v8 ad=2.34 pd=12.78 as=2.34 ps=12.78 w=6 l=2
X228 CSoutput.t151 a_n7636_8799.t80 vdd.t222 vdd.t142 sky130_fd_pr__pfet_01v8 ad=1.32 pd=8.33 as=1.32 ps=8.33 w=8 l=0.5
X229 CSoutput.t88 commonsourceibias.t155 gnd.t127 gnd.t126 sky130_fd_pr__nfet_01v8 ad=1.155 pd=7.33 as=1.155 ps=7.33 w=7 l=1
X230 CSoutput.t150 a_n7636_8799.t81 vdd.t221 vdd.t220 sky130_fd_pr__pfet_01v8 ad=1.32 pd=8.33 as=1.32 ps=8.33 w=8 l=0.5
X231 commonsourceibias.t59 commonsourceibias.t58 gnd.t125 gnd.t100 sky130_fd_pr__nfet_01v8 ad=1.155 pd=7.33 as=1.155 ps=7.33 w=7 l=1
X232 a_n2318_13878.t2 minus.t19 a_n2903_n3924.t2 gnd.t2 sky130_fd_pr__nfet_01v8 ad=1.155 pd=7.33 as=1.155 ps=7.33 w=7 l=0.5
X233 CSoutput.t149 a_n7636_8799.t82 vdd.t219 vdd.t205 sky130_fd_pr__pfet_01v8 ad=1.32 pd=8.33 as=1.32 ps=8.33 w=8 l=0.5
X234 CSoutput.t45 commonsourceibias.t156 gnd.t124 gnd.t49 sky130_fd_pr__nfet_01v8 ad=1.155 pd=7.33 as=1.155 ps=7.33 w=7 l=1
X235 outputibias.t7 outputibias.t6 gnd.t400 gnd.t399 sky130_fd_pr__nfet_01v8 ad=2.34 pd=12.78 as=2.34 ps=12.78 w=6 l=2
X236 gnd.t123 commonsourceibias.t56 commonsourceibias.t57 gnd.t122 sky130_fd_pr__nfet_01v8 ad=1.155 pd=7.33 as=1.155 ps=7.33 w=7 l=1
X237 vdd.t24 CSoutput.t228 output.t9 gnd.t251 sky130_fd_pr__nfet_01v8 ad=0.825 pd=5.33 as=0.825 ps=5.33 w=5 l=1
X238 diffpairibias.t9 diffpairibias.t8 gnd.t390 gnd.t389 sky130_fd_pr__nfet_01v8 ad=2.73 pd=14.78 as=2.73 ps=14.78 w=7 l=1
X239 a_n2140_13878.t21 a_n2318_13878.t69 vdd.t135 vdd.t134 sky130_fd_pr__pfet_01v8 ad=1.485 pd=9.33 as=1.485 ps=9.33 w=9 l=0.5
X240 output.t1 outputibias.t9 gnd.t234 gnd.t233 sky130_fd_pr__nfet_01v8 ad=2.34 pd=12.78 as=2.34 ps=12.78 w=6 l=2
X241 vdd.t35 a_n2318_13878.t70 a_n2140_13878.t20 vdd.t34 sky130_fd_pr__pfet_01v8 ad=1.485 pd=9.33 as=1.485 ps=9.33 w=9 l=0.5
X242 CSoutput.t4 commonsourceibias.t157 gnd.t121 gnd.t74 sky130_fd_pr__nfet_01v8 ad=1.155 pd=7.33 as=1.155 ps=7.33 w=7 l=1
X243 vdd.t92 vdd.t90 vdd.t91 vdd.t80 sky130_fd_pr__pfet_01v8 ad=3.12 pd=16.78 as=0 ps=0 w=8 l=0.5
X244 CSoutput.t62 commonsourceibias.t158 gnd.t120 gnd.t26 sky130_fd_pr__nfet_01v8 ad=1.155 pd=7.33 as=1.155 ps=7.33 w=7 l=1
X245 CSoutput.t148 a_n7636_8799.t83 vdd.t218 vdd.t217 sky130_fd_pr__pfet_01v8 ad=1.32 pd=8.33 as=1.32 ps=8.33 w=8 l=0.5
X246 CSoutput.t18 commonsourceibias.t159 gnd.t119 gnd.t49 sky130_fd_pr__nfet_01v8 ad=1.155 pd=7.33 as=1.155 ps=7.33 w=7 l=1
X247 a_n2903_n3924.t19 plus.t14 a_n7636_8799.t28 gnd.t242 sky130_fd_pr__nfet_01v8 ad=1.155 pd=7.33 as=1.155 ps=7.33 w=7 l=0.5