* NGSPICE file created from opamp.ext - technology: sky130A

.subckt opamp output vdd plus minus commonsourceibias outputibias diffpairibias gnd CSoutput
Cload output gnd 0.0p
X0 CSoutput.t160 a_n1986_8322.t16 sky130_fd_pr__cap_mim_m3_1 l=12 w=12
X1 commonsourceibias.t63 commonsourceibias.t62 gnd.t284 gnd.t255 sky130_fd_pr__nfet_01v8 ad=1.155 pd=7.33 as=1.155 ps=7.33 w=7 l=1
X2 gnd.t283 commonsourceibias.t64 CSoutput.t89 gnd.t163 sky130_fd_pr__nfet_01v8 ad=1.155 pd=7.33 as=1.155 ps=7.33 w=7 l=1
X3 vdd.t146 a_n6972_8799.t36 CSoutput.t69 vdd.t43 sky130_fd_pr__pfet_01v8_lvt ad=1.32 pd=8.33 as=1.32 ps=8.33 w=8 l=0.5
X4 a_n1986_8322.t13 a_n2848_n452.t48 vdd.t154 vdd.t153 sky130_fd_pr__pfet_01v8_lvt ad=1.485 pd=9.33 as=1.485 ps=9.33 w=9 l=0.5
X5 a_n1808_13878.t11 a_n2848_n452.t15 a_n2848_n452.t16 vdd.t150 sky130_fd_pr__pfet_01v8_lvt ad=1.485 pd=9.33 as=3.51 ps=18.78 w=9 l=0.5
X6 a_n6972_8799.t27 plus.t5 a_n3106_n452.t52 gnd.t299 sky130_fd_pr__nfet_01v8 ad=1.155 pd=7.33 as=1.155 ps=7.33 w=7 l=0.9
X7 gnd.t282 commonsourceibias.t65 CSoutput.t49 gnd.t251 sky130_fd_pr__nfet_01v8 ad=1.155 pd=7.33 as=1.155 ps=7.33 w=7 l=1
X8 a_n3106_n452.t51 plus.t6 a_n6972_8799.t6 gnd.t16 sky130_fd_pr__nfet_01v8 ad=1.155 pd=7.33 as=1.155 ps=7.33 w=7 l=0.9
X9 a_n2848_n452.t36 a_n2848_n452.t35 a_n1808_13878.t10 vdd.t10 sky130_fd_pr__pfet_01v8_lvt ad=1.485 pd=9.33 as=1.485 ps=9.33 w=9 l=0.5
X10 a_n1808_13878.t9 a_n2848_n452.t27 a_n2848_n452.t28 vdd.t17 sky130_fd_pr__pfet_01v8_lvt ad=1.485 pd=9.33 as=1.485 ps=9.33 w=9 l=0.5
X11 vdd.t239 vdd.t237 vdd.t238 vdd.t215 sky130_fd_pr__pfet_01v8_lvt ad=3.51 pd=18.78 as=0 ps=0 w=9 l=0.5
X12 CSoutput.t147 a_n6972_8799.t37 vdd.t145 vdd.t95 sky130_fd_pr__pfet_01v8_lvt ad=1.32 pd=8.33 as=1.32 ps=8.33 w=8 l=0.5
X13 a_n1808_13878.t19 a_n2848_n452.t49 vdd.t156 vdd.t155 sky130_fd_pr__pfet_01v8_lvt ad=1.485 pd=9.33 as=1.485 ps=9.33 w=9 l=0.5
X14 gnd.t126 gnd.t124 gnd.t125 gnd.t30 sky130_fd_pr__nfet_01v8 ad=2.73 pd=14.78 as=0 ps=0 w=7 l=1
X15 gnd.t281 commonsourceibias.t60 commonsourceibias.t61 gnd.t181 sky130_fd_pr__nfet_01v8 ad=1.155 pd=7.33 as=1.155 ps=7.33 w=7 l=1
X16 vdd.t253 CSoutput.t161 output.t17 gnd.t315 sky130_fd_pr__nfet_01v8_lvt ad=0.825 pd=5.33 as=0.825 ps=5.33 w=5 l=1
X17 vdd.t236 vdd.t234 vdd.t235 vdd.t173 sky130_fd_pr__pfet_01v8_lvt ad=3.12 pd=16.78 as=0 ps=0 w=8 l=0.5
X18 CSoutput.t109 a_n6972_8799.t38 vdd.t144 vdd.t25 sky130_fd_pr__pfet_01v8_lvt ad=1.32 pd=8.33 as=1.32 ps=8.33 w=8 l=0.5
X19 vdd.t143 a_n6972_8799.t39 CSoutput.t143 vdd.t90 sky130_fd_pr__pfet_01v8_lvt ad=1.32 pd=8.33 as=1.32 ps=8.33 w=8 l=0.5
X20 gnd.t280 commonsourceibias.t66 CSoutput.t48 gnd.t181 sky130_fd_pr__nfet_01v8 ad=1.155 pd=7.33 as=1.155 ps=7.33 w=7 l=1
X21 CSoutput.t62 a_n6972_8799.t40 vdd.t142 vdd.t29 sky130_fd_pr__pfet_01v8_lvt ad=1.32 pd=8.33 as=1.32 ps=8.33 w=8 l=0.5
X22 gnd.t279 commonsourceibias.t67 CSoutput.t46 gnd.t190 sky130_fd_pr__nfet_01v8 ad=1.155 pd=7.33 as=1.155 ps=7.33 w=7 l=1
X23 output.t16 CSoutput.t162 vdd.t252 gnd.t314 sky130_fd_pr__nfet_01v8_lvt ad=1.95 pd=10.78 as=0.825 ps=5.33 w=5 l=1
X24 a_n1986_8322.t9 a_n2848_n452.t50 a_n6972_8799.t8 vdd.t18 sky130_fd_pr__pfet_01v8_lvt ad=1.485 pd=9.33 as=1.485 ps=9.33 w=9 l=0.5
X25 a_n2848_n452.t47 minus.t5 a_n3106_n452.t53 gnd.t285 sky130_fd_pr__nfet_01v8 ad=1.155 pd=7.33 as=1.155 ps=7.33 w=7 l=0.9
X26 a_n6972_8799.t26 plus.t7 a_n3106_n452.t50 gnd.t5 sky130_fd_pr__nfet_01v8 ad=1.155 pd=7.33 as=1.155 ps=7.33 w=7 l=0.9
X27 gnd.t278 commonsourceibias.t58 commonsourceibias.t59 gnd.t202 sky130_fd_pr__nfet_01v8 ad=1.155 pd=7.33 as=1.155 ps=7.33 w=7 l=1
X28 CSoutput.t150 a_n6972_8799.t41 vdd.t141 vdd.t61 sky130_fd_pr__pfet_01v8_lvt ad=1.32 pd=8.33 as=1.32 ps=8.33 w=8 l=0.5
X29 plus.t4 gnd.t121 gnd.t123 gnd.t122 sky130_fd_pr__nfet_01v8 ad=0.165 pd=1.33 as=0.165 ps=1.33 w=1 l=0.5
X30 a_n2848_n452.t10 minus.t6 a_n3106_n452.t11 gnd.t127 sky130_fd_pr__nfet_01v8 ad=1.155 pd=7.33 as=1.155 ps=7.33 w=7 l=0.9
X31 vdd.t140 a_n6972_8799.t42 CSoutput.t151 vdd.t84 sky130_fd_pr__pfet_01v8_lvt ad=1.32 pd=8.33 as=1.32 ps=8.33 w=8 l=0.5
X32 CSoutput.t163 a_n1986_8322.t16 sky130_fd_pr__cap_mim_m3_1 l=12 w=12
X33 output.t18 outputibias.t8 gnd.t319 gnd.t318 sky130_fd_pr__nfet_01v8 ad=2.34 pd=12.78 as=2.34 ps=12.78 w=6 l=2
X34 gnd.t120 gnd.t118 gnd.t119 gnd.t72 sky130_fd_pr__nfet_01v8 ad=2.73 pd=14.78 as=0 ps=0 w=7 l=1
X35 CSoutput.t117 commonsourceibias.t68 gnd.t277 gnd.t174 sky130_fd_pr__nfet_01v8 ad=1.155 pd=7.33 as=1.155 ps=7.33 w=7 l=1
X36 gnd.t276 commonsourceibias.t56 commonsourceibias.t57 gnd.t248 sky130_fd_pr__nfet_01v8 ad=1.155 pd=7.33 as=1.155 ps=7.33 w=7 l=1
X37 CSoutput.t149 a_n6972_8799.t43 vdd.t139 vdd.t63 sky130_fd_pr__pfet_01v8_lvt ad=1.32 pd=8.33 as=1.32 ps=8.33 w=8 l=0.5
X38 vdd.t138 a_n6972_8799.t44 CSoutput.t14 vdd.t104 sky130_fd_pr__pfet_01v8_lvt ad=1.32 pd=8.33 as=1.32 ps=8.33 w=8 l=0.5
X39 a_n3106_n452.t49 plus.t8 a_n6972_8799.t17 gnd.t141 sky130_fd_pr__nfet_01v8 ad=1.155 pd=7.33 as=1.155 ps=7.33 w=7 l=0.9
X40 output.t19 outputibias.t9 gnd.t321 gnd.t320 sky130_fd_pr__nfet_01v8 ad=2.34 pd=12.78 as=2.34 ps=12.78 w=6 l=2
X41 a_n6972_8799.t9 a_n2848_n452.t51 a_n1986_8322.t10 vdd.t150 sky130_fd_pr__pfet_01v8_lvt ad=1.485 pd=9.33 as=3.51 ps=18.78 w=9 l=0.5
X42 CSoutput.t118 a_n6972_8799.t45 vdd.t137 vdd.t19 sky130_fd_pr__pfet_01v8_lvt ad=1.32 pd=8.33 as=3.12 ps=16.78 w=8 l=0.5
X43 vdd.t136 a_n6972_8799.t46 CSoutput.t65 vdd.t126 sky130_fd_pr__pfet_01v8_lvt ad=1.32 pd=8.33 as=1.32 ps=8.33 w=8 l=0.5
X44 a_n3106_n452.t8 minus.t7 a_n2848_n452.t7 gnd.t17 sky130_fd_pr__nfet_01v8 ad=1.155 pd=7.33 as=1.155 ps=7.33 w=7 l=0.9
X45 CSoutput.t144 commonsourceibias.t69 gnd.t275 gnd.t169 sky130_fd_pr__nfet_01v8 ad=1.155 pd=7.33 as=1.155 ps=7.33 w=7 l=1
X46 a_n3106_n452.t54 diffpairibias.t16 gnd.t317 gnd.t316 sky130_fd_pr__nfet_01v8 ad=2.73 pd=14.78 as=2.73 ps=14.78 w=7 l=1
X47 vdd.t255 CSoutput.t164 output.t15 gnd.t313 sky130_fd_pr__nfet_01v8_lvt ad=0.825 pd=5.33 as=1.95 ps=10.78 w=5 l=1
X48 output.t14 CSoutput.t165 vdd.t249 gnd.t312 sky130_fd_pr__nfet_01v8_lvt ad=0.825 pd=5.33 as=0.825 ps=5.33 w=5 l=1
X49 output.t0 outputibias.t10 gnd.t144 gnd.t143 sky130_fd_pr__nfet_01v8 ad=2.34 pd=12.78 as=2.34 ps=12.78 w=6 l=2
X50 CSoutput.t120 commonsourceibias.t70 gnd.t274 gnd.t165 sky130_fd_pr__nfet_01v8 ad=1.155 pd=7.33 as=1.155 ps=7.33 w=7 l=1
X51 CSoutput.t99 a_n6972_8799.t47 vdd.t135 vdd.t53 sky130_fd_pr__pfet_01v8_lvt ad=1.32 pd=8.33 as=1.32 ps=8.33 w=8 l=0.5
X52 CSoutput.t43 a_n6972_8799.t48 vdd.t134 vdd.t95 sky130_fd_pr__pfet_01v8_lvt ad=1.32 pd=8.33 as=1.32 ps=8.33 w=8 l=0.5
X53 vdd.t233 vdd.t231 vdd.t232 vdd.t165 sky130_fd_pr__pfet_01v8_lvt ad=3.12 pd=16.78 as=0 ps=0 w=8 l=0.5
X54 gnd.t227 commonsourceibias.t30 commonsourceibias.t31 gnd.t210 sky130_fd_pr__nfet_01v8 ad=2.73 pd=14.78 as=1.155 ps=7.33 w=7 l=1
X55 vdd.t230 vdd.t228 vdd.t229 vdd.t173 sky130_fd_pr__pfet_01v8_lvt ad=3.12 pd=16.78 as=0 ps=0 w=8 l=0.5
X56 CSoutput.t76 commonsourceibias.t71 gnd.t273 gnd.t255 sky130_fd_pr__nfet_01v8 ad=1.155 pd=7.33 as=1.155 ps=7.33 w=7 l=1
X57 gnd.t117 gnd.t115 gnd.t116 gnd.t58 sky130_fd_pr__nfet_01v8 ad=2.73 pd=14.78 as=0 ps=0 w=7 l=0.9
X58 CSoutput.t36 a_n6972_8799.t49 vdd.t133 vdd.t29 sky130_fd_pr__pfet_01v8_lvt ad=1.32 pd=8.33 as=1.32 ps=8.33 w=8 l=0.5
X59 a_n3106_n452.t48 plus.t9 a_n6972_8799.t16 gnd.t140 sky130_fd_pr__nfet_01v8 ad=1.155 pd=7.33 as=1.155 ps=7.33 w=7 l=0.9
X60 a_n1808_13878.t8 a_n2848_n452.t31 a_n2848_n452.t32 vdd.t14 sky130_fd_pr__pfet_01v8_lvt ad=1.485 pd=9.33 as=3.51 ps=18.78 w=9 l=0.5
X61 vdd.t132 a_n6972_8799.t50 CSoutput.t146 vdd.t126 sky130_fd_pr__pfet_01v8_lvt ad=1.32 pd=8.33 as=1.32 ps=8.33 w=8 l=0.5
X62 a_n3106_n452.t47 plus.t10 a_n6972_8799.t19 gnd.t298 sky130_fd_pr__nfet_01v8 ad=1.155 pd=7.33 as=1.155 ps=7.33 w=7 l=0.9
X63 a_n3106_n452.t24 minus.t8 a_n2848_n452.t43 gnd.t291 sky130_fd_pr__nfet_01v8 ad=2.73 pd=14.78 as=1.155 ps=7.33 w=7 l=0.9
X64 diffpairibias.t15 diffpairibias.t14 gnd.t3 gnd.t2 sky130_fd_pr__nfet_01v8 ad=2.73 pd=14.78 as=2.73 ps=14.78 w=7 l=1
X65 a_n2848_n452.t22 a_n2848_n452.t21 a_n1808_13878.t7 vdd.t2 sky130_fd_pr__pfet_01v8_lvt ad=1.485 pd=9.33 as=1.485 ps=9.33 w=9 l=0.5
X66 CSoutput.t125 a_n6972_8799.t51 vdd.t131 vdd.t88 sky130_fd_pr__pfet_01v8_lvt ad=1.32 pd=8.33 as=1.32 ps=8.33 w=8 l=0.5
X67 vdd.t227 vdd.t225 vdd.t226 vdd.t200 sky130_fd_pr__pfet_01v8_lvt ad=3.51 pd=18.78 as=0 ps=0 w=9 l=0.5
X68 CSoutput.t87 a_n6972_8799.t52 vdd.t130 vdd.t61 sky130_fd_pr__pfet_01v8_lvt ad=1.32 pd=8.33 as=1.32 ps=8.33 w=8 l=0.5
X69 vdd.t129 a_n6972_8799.t53 CSoutput.t131 vdd.t84 sky130_fd_pr__pfet_01v8_lvt ad=1.32 pd=8.33 as=1.32 ps=8.33 w=8 l=0.5
X70 gnd.t272 commonsourceibias.t72 CSoutput.t115 gnd.t251 sky130_fd_pr__nfet_01v8 ad=1.155 pd=7.33 as=1.155 ps=7.33 w=7 l=1
X71 gnd.t271 commonsourceibias.t73 CSoutput.t54 gnd.t157 sky130_fd_pr__nfet_01v8 ad=1.155 pd=7.33 as=1.155 ps=7.33 w=7 l=1
X72 diffpairibias.t13 diffpairibias.t12 gnd.t14 gnd.t13 sky130_fd_pr__nfet_01v8 ad=2.73 pd=14.78 as=2.73 ps=14.78 w=7 l=1
X73 CSoutput.t41 a_n6972_8799.t54 vdd.t128 vdd.t92 sky130_fd_pr__pfet_01v8_lvt ad=1.32 pd=8.33 as=1.32 ps=8.33 w=8 l=0.5
X74 gnd.t270 commonsourceibias.t74 CSoutput.t0 gnd.t248 sky130_fd_pr__nfet_01v8 ad=1.155 pd=7.33 as=1.155 ps=7.33 w=7 l=1
X75 commonsourceibias.t55 commonsourceibias.t54 gnd.t269 gnd.t174 sky130_fd_pr__nfet_01v8 ad=1.155 pd=7.33 as=1.155 ps=7.33 w=7 l=1
X76 vdd.t127 a_n6972_8799.t55 CSoutput.t155 vdd.t126 sky130_fd_pr__pfet_01v8_lvt ad=1.32 pd=8.33 as=1.32 ps=8.33 w=8 l=0.5
X77 vdd.t125 a_n6972_8799.t56 CSoutput.t10 vdd.t35 sky130_fd_pr__pfet_01v8_lvt ad=1.32 pd=8.33 as=1.32 ps=8.33 w=8 l=0.5
X78 vdd.t250 CSoutput.t166 output.t13 gnd.t311 sky130_fd_pr__nfet_01v8_lvt ad=0.825 pd=5.33 as=0.825 ps=5.33 w=5 l=1
X79 CSoutput.t16 a_n6972_8799.t57 vdd.t124 vdd.t41 sky130_fd_pr__pfet_01v8_lvt ad=1.32 pd=8.33 as=3.12 ps=16.78 w=8 l=0.5
X80 vdd.t123 a_n6972_8799.t58 CSoutput.t159 vdd.t82 sky130_fd_pr__pfet_01v8_lvt ad=1.32 pd=8.33 as=1.32 ps=8.33 w=8 l=0.5
X81 CSoutput.t153 a_n6972_8799.t59 vdd.t122 vdd.t19 sky130_fd_pr__pfet_01v8_lvt ad=1.32 pd=8.33 as=3.12 ps=16.78 w=8 l=0.5
X82 gnd.t268 commonsourceibias.t75 CSoutput.t6 gnd.t190 sky130_fd_pr__nfet_01v8 ad=1.155 pd=7.33 as=1.155 ps=7.33 w=7 l=1
X83 a_n3106_n452.t10 minus.t9 a_n2848_n452.t9 gnd.t7 sky130_fd_pr__nfet_01v8 ad=1.155 pd=7.33 as=1.155 ps=7.33 w=7 l=0.9
X84 CSoutput.t167 a_n1986_8322.t16 sky130_fd_pr__cap_mim_m3_1 l=12 w=12
X85 commonsourceibias.t29 commonsourceibias.t28 gnd.t226 gnd.t204 sky130_fd_pr__nfet_01v8 ad=1.155 pd=7.33 as=1.155 ps=7.33 w=7 l=1
X86 a_n3106_n452.t46 plus.t11 a_n6972_8799.t22 gnd.t11 sky130_fd_pr__nfet_01v8 ad=2.73 pd=14.78 as=1.155 ps=7.33 w=7 l=0.9
X87 vdd.t121 a_n6972_8799.t60 CSoutput.t44 vdd.t23 sky130_fd_pr__pfet_01v8_lvt ad=1.32 pd=8.33 as=1.32 ps=8.33 w=8 l=0.5
X88 gnd.t267 commonsourceibias.t76 CSoutput.t40 gnd.t242 sky130_fd_pr__nfet_01v8 ad=1.155 pd=7.33 as=1.155 ps=7.33 w=7 l=1
X89 a_n6972_8799.t21 plus.t12 a_n3106_n452.t45 gnd.t6 sky130_fd_pr__nfet_01v8 ad=1.155 pd=7.33 as=1.155 ps=7.33 w=7 l=0.9
X90 commonsourceibias.t53 commonsourceibias.t52 gnd.t266 gnd.t194 sky130_fd_pr__nfet_01v8 ad=1.155 pd=7.33 as=1.155 ps=7.33 w=7 l=1
X91 CSoutput.t61 a_n6972_8799.t61 vdd.t120 vdd.t53 sky130_fd_pr__pfet_01v8_lvt ad=1.32 pd=8.33 as=1.32 ps=8.33 w=8 l=0.5
X92 CSoutput.t17 a_n6972_8799.t62 vdd.t119 vdd.t108 sky130_fd_pr__pfet_01v8_lvt ad=1.32 pd=8.33 as=1.32 ps=8.33 w=8 l=0.5
X93 CSoutput.t74 commonsourceibias.t77 gnd.t265 gnd.t240 sky130_fd_pr__nfet_01v8 ad=1.155 pd=7.33 as=2.73 ps=14.78 w=7 l=1
X94 a_n3106_n452.t55 diffpairibias.t17 gnd.t323 gnd.t322 sky130_fd_pr__nfet_01v8 ad=2.73 pd=14.78 as=2.73 ps=14.78 w=7 l=1
X95 gnd.t264 commonsourceibias.t50 commonsourceibias.t51 gnd.t242 sky130_fd_pr__nfet_01v8 ad=1.155 pd=7.33 as=1.155 ps=7.33 w=7 l=1
X96 CSoutput.t57 a_n6972_8799.t63 vdd.t118 vdd.t108 sky130_fd_pr__pfet_01v8_lvt ad=1.32 pd=8.33 as=1.32 ps=8.33 w=8 l=0.5
X97 a_n3106_n452.t44 plus.t13 a_n6972_8799.t30 gnd.t4 sky130_fd_pr__nfet_01v8 ad=1.155 pd=7.33 as=1.155 ps=7.33 w=7 l=0.9
X98 vdd.t117 a_n6972_8799.t64 CSoutput.t137 vdd.t106 sky130_fd_pr__pfet_01v8_lvt ad=1.32 pd=8.33 as=1.32 ps=8.33 w=8 l=0.5
X99 gnd.t263 commonsourceibias.t48 commonsourceibias.t49 gnd.t233 sky130_fd_pr__nfet_01v8 ad=2.73 pd=14.78 as=1.155 ps=7.33 w=7 l=1
X100 gnd.t114 gnd.t112 gnd.t113 gnd.t72 sky130_fd_pr__nfet_01v8 ad=2.73 pd=14.78 as=0 ps=0 w=7 l=1
X101 commonsourceibias.t47 commonsourceibias.t46 gnd.t262 gnd.t165 sky130_fd_pr__nfet_01v8 ad=1.155 pd=7.33 as=1.155 ps=7.33 w=7 l=1
X102 a_n2848_n452.t20 a_n2848_n452.t19 a_n1808_13878.t6 vdd.t18 sky130_fd_pr__pfet_01v8_lvt ad=1.485 pd=9.33 as=1.485 ps=9.33 w=9 l=0.5
X103 a_n2848_n452.t30 a_n2848_n452.t29 a_n1808_13878.t5 vdd.t161 sky130_fd_pr__pfet_01v8_lvt ad=3.51 pd=18.78 as=1.485 ps=9.33 w=9 l=0.5
X104 vdd.t116 a_n6972_8799.t65 CSoutput.t94 vdd.t104 sky130_fd_pr__pfet_01v8_lvt ad=1.32 pd=8.33 as=1.32 ps=8.33 w=8 l=0.5
X105 vdd.t115 a_n6972_8799.t66 CSoutput.t60 vdd.t65 sky130_fd_pr__pfet_01v8_lvt ad=1.32 pd=8.33 as=1.32 ps=8.33 w=8 l=0.5
X106 a_n6972_8799.t5 a_n2848_n452.t52 a_n1986_8322.t6 vdd.t11 sky130_fd_pr__pfet_01v8_lvt ad=1.485 pd=9.33 as=1.485 ps=9.33 w=9 l=0.5
X107 CSoutput.t8 commonsourceibias.t78 gnd.t261 gnd.t169 sky130_fd_pr__nfet_01v8 ad=1.155 pd=7.33 as=1.155 ps=7.33 w=7 l=1
X108 vdd.t114 a_n6972_8799.t67 CSoutput.t105 vdd.t106 sky130_fd_pr__pfet_01v8_lvt ad=1.32 pd=8.33 as=1.32 ps=8.33 w=8 l=0.5
X109 a_n2848_n452.t8 minus.t10 a_n3106_n452.t9 gnd.t18 sky130_fd_pr__nfet_01v8 ad=1.155 pd=7.33 as=2.73 ps=14.78 w=7 l=0.9
X110 CSoutput.t79 commonsourceibias.t79 gnd.t260 gnd.t229 sky130_fd_pr__nfet_01v8 ad=1.155 pd=7.33 as=1.155 ps=7.33 w=7 l=1
X111 CSoutput.t119 commonsourceibias.t80 gnd.t259 gnd.t236 sky130_fd_pr__nfet_01v8 ad=1.155 pd=7.33 as=1.155 ps=7.33 w=7 l=1
X112 vdd.t113 a_n6972_8799.t68 CSoutput.t107 vdd.t39 sky130_fd_pr__pfet_01v8_lvt ad=1.32 pd=8.33 as=1.32 ps=8.33 w=8 l=0.5
X113 gnd.t258 commonsourceibias.t81 CSoutput.t22 gnd.t233 sky130_fd_pr__nfet_01v8 ad=2.73 pd=14.78 as=1.155 ps=7.33 w=7 l=1
X114 commonsourceibias.t17 commonsourceibias.t16 gnd.t257 gnd.t188 sky130_fd_pr__nfet_01v8 ad=1.155 pd=7.33 as=1.155 ps=7.33 w=7 l=1
X115 CSoutput.t82 a_n6972_8799.t69 vdd.t112 vdd.t67 sky130_fd_pr__pfet_01v8_lvt ad=1.32 pd=8.33 as=1.32 ps=8.33 w=8 l=0.5
X116 CSoutput.t112 commonsourceibias.t82 gnd.t256 gnd.t255 sky130_fd_pr__nfet_01v8 ad=1.155 pd=7.33 as=1.155 ps=7.33 w=7 l=1
X117 CSoutput.t168 a_n1986_8322.t16 sky130_fd_pr__cap_mim_m3_1 l=12 w=12
X118 vdd.t111 a_n6972_8799.t70 CSoutput.t111 vdd.t82 sky130_fd_pr__pfet_01v8_lvt ad=1.32 pd=8.33 as=1.32 ps=8.33 w=8 l=0.5
X119 vdd.t224 vdd.t222 vdd.t223 vdd.t208 sky130_fd_pr__pfet_01v8_lvt ad=3.51 pd=18.78 as=0 ps=0 w=9 l=0.5
X120 CSoutput.t18 a_n6972_8799.t71 vdd.t110 vdd.t41 sky130_fd_pr__pfet_01v8_lvt ad=1.32 pd=8.33 as=3.12 ps=16.78 w=8 l=0.5
X121 vdd.t221 vdd.t218 vdd.t220 vdd.t219 sky130_fd_pr__pfet_01v8_lvt ad=3.51 pd=18.78 as=0 ps=0 w=9 l=0.5
X122 gnd.t254 commonsourceibias.t83 CSoutput.t122 gnd.t207 sky130_fd_pr__nfet_01v8 ad=1.155 pd=7.33 as=1.155 ps=7.33 w=7 l=1
X123 output.t1 outputibias.t11 gnd.t150 gnd.t149 sky130_fd_pr__nfet_01v8 ad=2.34 pd=12.78 as=2.34 ps=12.78 w=6 l=2
X124 a_n3106_n452.t22 diffpairibias.t18 gnd.t287 gnd.t286 sky130_fd_pr__nfet_01v8 ad=2.73 pd=14.78 as=2.73 ps=14.78 w=7 l=1
X125 vdd.t217 vdd.t214 vdd.t216 vdd.t215 sky130_fd_pr__pfet_01v8_lvt ad=3.51 pd=18.78 as=0 ps=0 w=9 l=0.5
X126 gnd.t111 gnd.t109 minus.t4 gnd.t110 sky130_fd_pr__nfet_01v8 ad=0.39 pd=2.78 as=0.165 ps=1.33 w=1 l=0.5
X127 gnd.t108 gnd.t106 gnd.t107 gnd.t51 sky130_fd_pr__nfet_01v8 ad=2.73 pd=14.78 as=0 ps=0 w=7 l=0.9
X128 CSoutput.t169 a_n1986_8322.t16 sky130_fd_pr__cap_mim_m3_1 l=12 w=12
X129 commonsourceibias.t15 commonsourceibias.t14 gnd.t253 gnd.t236 sky130_fd_pr__nfet_01v8 ad=1.155 pd=7.33 as=1.155 ps=7.33 w=7 l=1
X130 vdd.t16 a_n2848_n452.t53 a_n1986_8322.t7 vdd.t15 sky130_fd_pr__pfet_01v8_lvt ad=1.485 pd=9.33 as=1.485 ps=9.33 w=9 l=0.5
X131 vdd.t213 vdd.t211 vdd.t212 vdd.t204 sky130_fd_pr__pfet_01v8_lvt ad=3.51 pd=18.78 as=0 ps=0 w=9 l=0.5
X132 CSoutput.t63 a_n6972_8799.t72 vdd.t109 vdd.t108 sky130_fd_pr__pfet_01v8_lvt ad=1.32 pd=8.33 as=1.32 ps=8.33 w=8 l=0.5
X133 a_n1986_8322.t4 a_n2848_n452.t54 vdd.t7 vdd.t6 sky130_fd_pr__pfet_01v8_lvt ad=1.485 pd=9.33 as=1.485 ps=9.33 w=9 l=0.5
X134 vdd.t107 a_n6972_8799.t73 CSoutput.t157 vdd.t106 sky130_fd_pr__pfet_01v8_lvt ad=1.32 pd=8.33 as=1.32 ps=8.33 w=8 l=0.5
X135 gnd.t252 commonsourceibias.t12 commonsourceibias.t13 gnd.t251 sky130_fd_pr__nfet_01v8 ad=1.155 pd=7.33 as=1.155 ps=7.33 w=7 l=1
X136 gnd.t250 commonsourceibias.t84 CSoutput.t27 gnd.t157 sky130_fd_pr__nfet_01v8 ad=1.155 pd=7.33 as=1.155 ps=7.33 w=7 l=1
X137 vdd.t9 a_n2848_n452.t55 a_n1808_13878.t18 vdd.t8 sky130_fd_pr__pfet_01v8_lvt ad=1.485 pd=9.33 as=1.485 ps=9.33 w=9 l=0.5
X138 gnd.t105 gnd.t103 plus.t3 gnd.t104 sky130_fd_pr__nfet_01v8 ad=0.39 pd=2.78 as=0.165 ps=1.33 w=1 l=0.5
X139 gnd.t249 commonsourceibias.t85 CSoutput.t134 gnd.t248 sky130_fd_pr__nfet_01v8 ad=1.155 pd=7.33 as=1.155 ps=7.33 w=7 l=1
X140 a_n2848_n452.t11 minus.t11 a_n3106_n452.t12 gnd.t128 sky130_fd_pr__nfet_01v8 ad=1.155 pd=7.33 as=1.155 ps=7.33 w=7 l=0.9
X141 a_n6972_8799.t14 plus.t14 a_n3106_n452.t43 gnd.t290 sky130_fd_pr__nfet_01v8 ad=1.155 pd=7.33 as=2.73 ps=14.78 w=7 l=0.9
X142 gnd.t247 commonsourceibias.t86 CSoutput.t58 gnd.t198 sky130_fd_pr__nfet_01v8 ad=1.155 pd=7.33 as=1.155 ps=7.33 w=7 l=1
X143 commonsourceibias.t37 commonsourceibias.t36 gnd.t246 gnd.t196 sky130_fd_pr__nfet_01v8 ad=1.155 pd=7.33 as=1.155 ps=7.33 w=7 l=1
X144 vdd.t210 vdd.t207 vdd.t209 vdd.t208 sky130_fd_pr__pfet_01v8_lvt ad=3.51 pd=18.78 as=0 ps=0 w=9 l=0.5
X145 a_n6972_8799.t29 plus.t15 a_n3106_n452.t42 gnd.t135 sky130_fd_pr__nfet_01v8 ad=1.155 pd=7.33 as=1.155 ps=7.33 w=7 l=0.9
X146 a_n2848_n452.t45 minus.t12 a_n3106_n452.t27 gnd.t12 sky130_fd_pr__nfet_01v8 ad=1.155 pd=7.33 as=1.155 ps=7.33 w=7 l=0.9
X147 vdd.t243 CSoutput.t170 output.t12 gnd.t310 sky130_fd_pr__nfet_01v8_lvt ad=0.825 pd=5.33 as=0.825 ps=5.33 w=5 l=1
X148 diffpairibias.t11 diffpairibias.t10 gnd.t295 gnd.t294 sky130_fd_pr__nfet_01v8 ad=2.73 pd=14.78 as=2.73 ps=14.78 w=7 l=1
X149 vdd.t206 vdd.t203 vdd.t205 vdd.t204 sky130_fd_pr__pfet_01v8_lvt ad=3.51 pd=18.78 as=0 ps=0 w=9 l=0.5
X150 vdd.t105 a_n6972_8799.t74 CSoutput.t19 vdd.t104 sky130_fd_pr__pfet_01v8_lvt ad=1.32 pd=8.33 as=1.32 ps=8.33 w=8 l=0.5
X151 gnd.t245 commonsourceibias.t87 CSoutput.t59 gnd.t217 sky130_fd_pr__nfet_01v8 ad=1.155 pd=7.33 as=1.155 ps=7.33 w=7 l=1
X152 gnd.t102 gnd.t99 gnd.t101 gnd.t100 sky130_fd_pr__nfet_01v8 ad=2.34 pd=12.78 as=0 ps=0 w=6 l=2
X153 a_n6972_8799.t2 a_n2848_n452.t56 a_n1986_8322.t2 vdd.t3 sky130_fd_pr__pfet_01v8_lvt ad=1.485 pd=9.33 as=1.485 ps=9.33 w=9 l=0.5
X154 a_n1986_8322.t3 a_n2848_n452.t57 vdd.t5 vdd.t4 sky130_fd_pr__pfet_01v8_lvt ad=3.51 pd=18.78 as=1.485 ps=9.33 w=9 l=0.5
X155 vdd.t202 vdd.t199 vdd.t201 vdd.t200 sky130_fd_pr__pfet_01v8_lvt ad=3.51 pd=18.78 as=0 ps=0 w=9 l=0.5
X156 CSoutput.t148 commonsourceibias.t88 gnd.t244 gnd.t240 sky130_fd_pr__nfet_01v8 ad=1.155 pd=7.33 as=2.73 ps=14.78 w=7 l=1
X157 gnd.t243 commonsourceibias.t89 CSoutput.t136 gnd.t242 sky130_fd_pr__nfet_01v8 ad=1.155 pd=7.33 as=1.155 ps=7.33 w=7 l=1
X158 vdd.t103 a_n6972_8799.t75 CSoutput.t34 vdd.t39 sky130_fd_pr__pfet_01v8_lvt ad=1.32 pd=8.33 as=1.32 ps=8.33 w=8 l=0.5
X159 a_n2848_n452.t34 a_n2848_n452.t33 a_n1808_13878.t4 vdd.t149 sky130_fd_pr__pfet_01v8_lvt ad=1.485 pd=9.33 as=1.485 ps=9.33 w=9 l=0.5
X160 a_n3106_n452.t6 minus.t13 a_n2848_n452.t5 gnd.t15 sky130_fd_pr__nfet_01v8 ad=1.155 pd=7.33 as=1.155 ps=7.33 w=7 l=0.9
X161 commonsourceibias.t35 commonsourceibias.t34 gnd.t241 gnd.t240 sky130_fd_pr__nfet_01v8 ad=1.155 pd=7.33 as=2.73 ps=14.78 w=7 l=1
X162 CSoutput.t66 a_n6972_8799.t76 vdd.t102 vdd.t67 sky130_fd_pr__pfet_01v8_lvt ad=1.32 pd=8.33 as=1.32 ps=8.33 w=8 l=0.5
X163 a_n6972_8799.t34 a_n2848_n452.t58 a_n1986_8322.t19 vdd.t17 sky130_fd_pr__pfet_01v8_lvt ad=1.485 pd=9.33 as=1.485 ps=9.33 w=9 l=0.5
X164 CSoutput.t78 commonsourceibias.t90 gnd.t239 gnd.t178 sky130_fd_pr__nfet_01v8 ad=1.155 pd=7.33 as=1.155 ps=7.33 w=7 l=1
X165 a_n1808_13878.t3 a_n2848_n452.t17 a_n2848_n452.t18 vdd.t11 sky130_fd_pr__pfet_01v8_lvt ad=1.485 pd=9.33 as=1.485 ps=9.33 w=9 l=0.5
X166 a_n3106_n452.t41 plus.t16 a_n6972_8799.t20 gnd.t139 sky130_fd_pr__nfet_01v8 ad=1.155 pd=7.33 as=1.155 ps=7.33 w=7 l=0.9
X167 a_n2848_n452.t44 minus.t14 a_n3106_n452.t26 gnd.t299 sky130_fd_pr__nfet_01v8 ad=1.155 pd=7.33 as=1.155 ps=7.33 w=7 l=0.9
X168 vdd.t101 a_n6972_8799.t77 CSoutput.t83 vdd.t90 sky130_fd_pr__pfet_01v8_lvt ad=1.32 pd=8.33 as=1.32 ps=8.33 w=8 l=0.5
X169 CSoutput.t158 a_n6972_8799.t78 vdd.t100 vdd.t92 sky130_fd_pr__pfet_01v8_lvt ad=1.32 pd=8.33 as=1.32 ps=8.33 w=8 l=0.5
X170 vdd.t263 a_n2848_n452.t59 a_n1986_8322.t20 vdd.t262 sky130_fd_pr__pfet_01v8_lvt ad=1.485 pd=9.33 as=3.51 ps=18.78 w=9 l=0.5
X171 gnd.t98 gnd.t95 gnd.t97 gnd.t96 sky130_fd_pr__nfet_01v8 ad=2.73 pd=14.78 as=0 ps=0 w=7 l=1
X172 a_n3106_n452.t20 diffpairibias.t19 gnd.t148 gnd.t147 sky130_fd_pr__nfet_01v8 ad=2.73 pd=14.78 as=2.73 ps=14.78 w=7 l=1
X173 CSoutput.t121 commonsourceibias.t91 gnd.t238 gnd.t229 sky130_fd_pr__nfet_01v8 ad=1.155 pd=7.33 as=1.155 ps=7.33 w=7 l=1
X174 CSoutput.t141 a_n6972_8799.t79 vdd.t99 vdd.t88 sky130_fd_pr__pfet_01v8_lvt ad=1.32 pd=8.33 as=1.32 ps=8.33 w=8 l=0.5
X175 CSoutput.t96 commonsourceibias.t92 gnd.t237 gnd.t236 sky130_fd_pr__nfet_01v8 ad=1.155 pd=7.33 as=1.155 ps=7.33 w=7 l=1
X176 a_n6972_8799.t18 plus.t17 a_n3106_n452.t40 gnd.t10 sky130_fd_pr__nfet_01v8 ad=1.155 pd=7.33 as=1.155 ps=7.33 w=7 l=0.9
X177 CSoutput.t3 commonsourceibias.t93 gnd.t235 gnd.t161 sky130_fd_pr__nfet_01v8 ad=1.155 pd=7.33 as=1.155 ps=7.33 w=7 l=1
X178 a_n3106_n452.t0 diffpairibias.t20 gnd.t1 gnd.t0 sky130_fd_pr__nfet_01v8 ad=2.73 pd=14.78 as=2.73 ps=14.78 w=7 l=1
X179 vdd.t98 a_n6972_8799.t80 CSoutput.t5 vdd.t21 sky130_fd_pr__pfet_01v8_lvt ad=3.12 pd=16.78 as=1.32 ps=8.33 w=8 l=0.5
X180 gnd.t234 commonsourceibias.t94 CSoutput.t9 gnd.t233 sky130_fd_pr__nfet_01v8 ad=2.73 pd=14.78 as=1.155 ps=7.33 w=7 l=1
X181 gnd.t232 commonsourceibias.t95 CSoutput.t39 gnd.t210 sky130_fd_pr__nfet_01v8 ad=2.73 pd=14.78 as=1.155 ps=7.33 w=7 l=1
X182 CSoutput.t33 commonsourceibias.t96 gnd.t231 gnd.t186 sky130_fd_pr__nfet_01v8 ad=1.155 pd=7.33 as=1.155 ps=7.33 w=7 l=1
X183 commonsourceibias.t33 commonsourceibias.t32 gnd.t230 gnd.t229 sky130_fd_pr__nfet_01v8 ad=1.155 pd=7.33 as=1.155 ps=7.33 w=7 l=1
X184 vdd.t244 CSoutput.t171 output.t11 gnd.t309 sky130_fd_pr__nfet_01v8_lvt ad=0.825 pd=5.33 as=0.825 ps=5.33 w=5 l=1
X185 a_n6972_8799.t23 plus.t18 a_n3106_n452.t39 gnd.t127 sky130_fd_pr__nfet_01v8 ad=1.155 pd=7.33 as=1.155 ps=7.33 w=7 l=0.9
X186 vdd.t97 a_n6972_8799.t81 CSoutput.t101 vdd.t55 sky130_fd_pr__pfet_01v8_lvt ad=1.32 pd=8.33 as=1.32 ps=8.33 w=8 l=0.5
X187 gnd.t228 commonsourceibias.t97 CSoutput.t64 gnd.t207 sky130_fd_pr__nfet_01v8 ad=1.155 pd=7.33 as=1.155 ps=7.33 w=7 l=1
X188 gnd.t94 gnd.t91 gnd.t93 gnd.t92 sky130_fd_pr__nfet_01v8_lvt ad=1.95 pd=10.78 as=0 ps=0 w=5 l=1
X189 minus.t3 gnd.t88 gnd.t90 gnd.t89 sky130_fd_pr__nfet_01v8 ad=0.165 pd=1.33 as=0.165 ps=1.33 w=1 l=0.5
X190 CSoutput.t26 commonsourceibias.t98 gnd.t225 gnd.t204 sky130_fd_pr__nfet_01v8 ad=1.155 pd=7.33 as=1.155 ps=7.33 w=7 l=1
X191 gnd.t87 gnd.t85 gnd.t86 gnd.t47 sky130_fd_pr__nfet_01v8 ad=2.73 pd=14.78 as=0 ps=0 w=7 l=1
X192 diffpairibias.t9 diffpairibias.t8 gnd.t289 gnd.t288 sky130_fd_pr__nfet_01v8 ad=2.73 pd=14.78 as=2.73 ps=14.78 w=7 l=1
X193 a_n2848_n452.t13 minus.t15 a_n3106_n452.t15 gnd.t136 sky130_fd_pr__nfet_01v8 ad=1.155 pd=7.33 as=1.155 ps=7.33 w=7 l=0.9
X194 CSoutput.t127 a_n6972_8799.t82 vdd.t96 vdd.t95 sky130_fd_pr__pfet_01v8_lvt ad=1.32 pd=8.33 as=1.32 ps=8.33 w=8 l=0.5
X195 a_n3106_n452.t38 plus.t19 a_n6972_8799.t31 gnd.t17 sky130_fd_pr__nfet_01v8 ad=1.155 pd=7.33 as=1.155 ps=7.33 w=7 l=0.9
X196 CSoutput.t116 a_n6972_8799.t83 vdd.t94 vdd.t74 sky130_fd_pr__pfet_01v8_lvt ad=1.32 pd=8.33 as=1.32 ps=8.33 w=8 l=0.5
X197 CSoutput.t45 commonsourceibias.t99 gnd.t224 gnd.t159 sky130_fd_pr__nfet_01v8 ad=1.155 pd=7.33 as=2.73 ps=14.78 w=7 l=1
X198 gnd.t223 commonsourceibias.t100 CSoutput.t21 gnd.t202 sky130_fd_pr__nfet_01v8 ad=1.155 pd=7.33 as=1.155 ps=7.33 w=7 l=1
X199 vdd.t198 vdd.t196 vdd.t197 vdd.t180 sky130_fd_pr__pfet_01v8_lvt ad=3.12 pd=16.78 as=0 ps=0 w=8 l=0.5
X200 a_n1808_13878.t17 a_n2848_n452.t60 vdd.t158 vdd.t157 sky130_fd_pr__pfet_01v8_lvt ad=1.485 pd=9.33 as=1.485 ps=9.33 w=9 l=0.5
X201 vdd.t160 a_n2848_n452.t61 a_n1808_13878.t16 vdd.t159 sky130_fd_pr__pfet_01v8_lvt ad=1.485 pd=9.33 as=1.485 ps=9.33 w=9 l=0.5
X202 gnd.t222 commonsourceibias.t26 commonsourceibias.t27 gnd.t176 sky130_fd_pr__nfet_01v8 ad=1.155 pd=7.33 as=1.155 ps=7.33 w=7 l=1
X203 gnd.t221 commonsourceibias.t101 CSoutput.t20 gnd.t198 sky130_fd_pr__nfet_01v8 ad=1.155 pd=7.33 as=1.155 ps=7.33 w=7 l=1
X204 CSoutput.t130 a_n6972_8799.t84 vdd.t93 vdd.t92 sky130_fd_pr__pfet_01v8_lvt ad=1.32 pd=8.33 as=1.32 ps=8.33 w=8 l=0.5
X205 vdd.t91 a_n6972_8799.t85 CSoutput.t98 vdd.t90 sky130_fd_pr__pfet_01v8_lvt ad=1.32 pd=8.33 as=1.32 ps=8.33 w=8 l=0.5
X206 gnd.t220 commonsourceibias.t102 CSoutput.t114 gnd.t217 sky130_fd_pr__nfet_01v8 ad=1.155 pd=7.33 as=1.155 ps=7.33 w=7 l=1
X207 a_n3106_n452.t19 minus.t16 a_n2848_n452.t41 gnd.t142 sky130_fd_pr__nfet_01v8 ad=1.155 pd=7.33 as=1.155 ps=7.33 w=7 l=0.9
X208 CSoutput.t37 commonsourceibias.t103 gnd.t219 gnd.t196 sky130_fd_pr__nfet_01v8 ad=1.155 pd=7.33 as=1.155 ps=7.33 w=7 l=1
X209 diffpairibias.t7 diffpairibias.t6 gnd.t134 gnd.t133 sky130_fd_pr__nfet_01v8 ad=2.73 pd=14.78 as=2.73 ps=14.78 w=7 l=1
X210 CSoutput.t140 a_n6972_8799.t86 vdd.t89 vdd.t88 sky130_fd_pr__pfet_01v8_lvt ad=1.32 pd=8.33 as=1.32 ps=8.33 w=8 l=0.5
X211 gnd.t218 commonsourceibias.t24 commonsourceibias.t25 gnd.t217 sky130_fd_pr__nfet_01v8 ad=1.155 pd=7.33 as=1.155 ps=7.33 w=7 l=1
X212 output.t10 CSoutput.t172 vdd.t241 gnd.t308 sky130_fd_pr__nfet_01v8_lvt ad=0.825 pd=5.33 as=0.825 ps=5.33 w=5 l=1
X213 vdd.t87 a_n6972_8799.t87 CSoutput.t126 vdd.t21 sky130_fd_pr__pfet_01v8_lvt ad=3.12 pd=16.78 as=1.32 ps=8.33 w=8 l=0.5
X214 CSoutput.t32 commonsourceibias.t104 gnd.t216 gnd.t194 sky130_fd_pr__nfet_01v8 ad=1.155 pd=7.33 as=1.155 ps=7.33 w=7 l=1
X215 a_n3106_n452.t28 minus.t17 a_n2848_n452.t46 gnd.t298 sky130_fd_pr__nfet_01v8 ad=1.155 pd=7.33 as=1.155 ps=7.33 w=7 l=0.9
X216 a_n3106_n452.t37 plus.t20 a_n6972_8799.t15 gnd.t291 sky130_fd_pr__nfet_01v8 ad=2.73 pd=14.78 as=1.155 ps=7.33 w=7 l=0.9
X217 gnd.t84 gnd.t82 gnd.t83 gnd.t47 sky130_fd_pr__nfet_01v8 ad=2.73 pd=14.78 as=0 ps=0 w=7 l=1
X218 a_n1986_8322.t11 a_n2848_n452.t62 a_n6972_8799.t10 vdd.t10 sky130_fd_pr__pfet_01v8_lvt ad=1.485 pd=9.33 as=1.485 ps=9.33 w=9 l=0.5
X219 CSoutput.t73 a_n6972_8799.t88 vdd.t86 vdd.t50 sky130_fd_pr__pfet_01v8_lvt ad=1.32 pd=8.33 as=1.32 ps=8.33 w=8 l=0.5
X220 CSoutput.t138 commonsourceibias.t105 gnd.t215 gnd.t178 sky130_fd_pr__nfet_01v8 ad=1.155 pd=7.33 as=1.155 ps=7.33 w=7 l=1
X221 a_n3106_n452.t7 minus.t18 a_n2848_n452.t6 gnd.t16 sky130_fd_pr__nfet_01v8 ad=1.155 pd=7.33 as=1.155 ps=7.33 w=7 l=0.9
X222 vdd.t85 a_n6972_8799.t89 CSoutput.t4 vdd.t84 sky130_fd_pr__pfet_01v8_lvt ad=1.32 pd=8.33 as=1.32 ps=8.33 w=8 l=0.5
X223 vdd.t83 a_n6972_8799.t90 CSoutput.t2 vdd.t82 sky130_fd_pr__pfet_01v8_lvt ad=1.32 pd=8.33 as=1.32 ps=8.33 w=8 l=0.5
X224 CSoutput.t30 a_n6972_8799.t91 vdd.t81 vdd.t33 sky130_fd_pr__pfet_01v8_lvt ad=1.32 pd=8.33 as=1.32 ps=8.33 w=8 l=0.5
X225 vdd.t80 a_n6972_8799.t92 CSoutput.t51 vdd.t55 sky130_fd_pr__pfet_01v8_lvt ad=1.32 pd=8.33 as=1.32 ps=8.33 w=8 l=0.5
X226 vdd.t152 a_n2848_n452.t63 a_n1986_8322.t12 vdd.t151 sky130_fd_pr__pfet_01v8_lvt ad=1.485 pd=9.33 as=3.51 ps=18.78 w=9 l=0.5
X227 gnd.t214 commonsourceibias.t22 commonsourceibias.t23 gnd.t183 sky130_fd_pr__nfet_01v8 ad=1.155 pd=7.33 as=1.155 ps=7.33 w=7 l=1
X228 a_n1808_13878.t15 a_n2848_n452.t64 vdd.t148 vdd.t147 sky130_fd_pr__pfet_01v8_lvt ad=3.51 pd=18.78 as=1.485 ps=9.33 w=9 l=0.5
X229 gnd.t81 gnd.t78 gnd.t80 gnd.t79 sky130_fd_pr__nfet_01v8 ad=2.73 pd=14.78 as=0 ps=0 w=7 l=1
X230 minus.t2 gnd.t75 gnd.t77 gnd.t76 sky130_fd_pr__nfet_01v8 ad=0.165 pd=1.33 as=0.165 ps=1.33 w=1 l=0.5
X231 CSoutput.t11 commonsourceibias.t106 gnd.t213 gnd.t188 sky130_fd_pr__nfet_01v8 ad=1.155 pd=7.33 as=1.155 ps=7.33 w=7 l=1
X232 gnd.t74 gnd.t71 gnd.t73 gnd.t72 sky130_fd_pr__nfet_01v8 ad=2.73 pd=14.78 as=0 ps=0 w=7 l=1
X233 a_n3106_n452.t25 diffpairibias.t21 gnd.t297 gnd.t296 sky130_fd_pr__nfet_01v8 ad=2.73 pd=14.78 as=2.73 ps=14.78 w=7 l=1
X234 vdd.t79 a_n6972_8799.t93 CSoutput.t97 vdd.t65 sky130_fd_pr__pfet_01v8_lvt ad=1.32 pd=8.33 as=1.32 ps=8.33 w=8 l=0.5
X235 CSoutput.t53 a_n6972_8799.t94 vdd.t78 vdd.t74 sky130_fd_pr__pfet_01v8_lvt ad=1.32 pd=8.33 as=1.32 ps=8.33 w=8 l=0.5
X236 a_n6972_8799.t13 plus.t21 a_n3106_n452.t36 gnd.t285 sky130_fd_pr__nfet_01v8 ad=1.155 pd=7.33 as=1.155 ps=7.33 w=7 l=0.9
X237 a_n2848_n452.t1 minus.t19 a_n3106_n452.t2 gnd.t5 sky130_fd_pr__nfet_01v8 ad=1.155 pd=7.33 as=1.155 ps=7.33 w=7 l=0.9
X238 output.t9 CSoutput.t173 vdd.t251 gnd.t307 sky130_fd_pr__nfet_01v8_lvt ad=0.825 pd=5.33 as=0.825 ps=5.33 w=5 l=1
X239 CSoutput.t25 commonsourceibias.t107 gnd.t212 gnd.t161 sky130_fd_pr__nfet_01v8 ad=1.155 pd=7.33 as=1.155 ps=7.33 w=7 l=1
X240 CSoutput.t12 a_n6972_8799.t95 vdd.t77 vdd.t63 sky130_fd_pr__pfet_01v8_lvt ad=1.32 pd=8.33 as=1.32 ps=8.33 w=8 l=0.5
X241 a_n3106_n452.t5 minus.t20 a_n2848_n452.t4 gnd.t11 sky130_fd_pr__nfet_01v8 ad=2.73 pd=14.78 as=1.155 ps=7.33 w=7 l=0.9
X242 gnd.t211 commonsourceibias.t108 CSoutput.t38 gnd.t210 sky130_fd_pr__nfet_01v8 ad=2.73 pd=14.78 as=1.155 ps=7.33 w=7 l=1
X243 vdd.t195 vdd.t193 vdd.t194 vdd.t180 sky130_fd_pr__pfet_01v8_lvt ad=3.12 pd=16.78 as=0 ps=0 w=8 l=0.5
X244 CSoutput.t31 commonsourceibias.t109 gnd.t209 gnd.t186 sky130_fd_pr__nfet_01v8 ad=1.155 pd=7.33 as=1.155 ps=7.33 w=7 l=1
X245 gnd.t70 gnd.t67 gnd.t69 gnd.t68 sky130_fd_pr__nfet_01v8 ad=2.34 pd=12.78 as=0 ps=0 w=6 l=2
X246 gnd.t208 commonsourceibias.t10 commonsourceibias.t11 gnd.t207 sky130_fd_pr__nfet_01v8 ad=1.155 pd=7.33 as=1.155 ps=7.33 w=7 l=1