* NGSPICE file created from opamp.ext - technology: sky130A

.subckt opamp output vdd plus minus commonsourceibias outputibias diffpairibias gnd CSoutput
Cload output gnd 0.0p
X0 gnd.t221 gnd.t218 gnd.t220 gnd.t219 sky130_fd_pr__nfet_01v8 ad=2.34 pd=12.78 as=0 ps=0 w=6 l=2
X1 commonsourceibias.t47 commonsourceibias.t46 gnd.t269 gnd.t263 sky130_fd_pr__nfet_01v8 ad=1.155 pd=7.33 as=2.73 ps=14.78 w=7 l=1
X2 gnd.t235 commonsourceibias.t48 CSoutput.t127 gnd.t70 sky130_fd_pr__nfet_01v8 ad=1.155 pd=7.33 as=1.155 ps=7.33 w=7 l=1
X3 gnd.t217 gnd.t215 gnd.t216 gnd.t203 sky130_fd_pr__nfet_01v8 ad=2.73 pd=14.78 as=0 ps=0 w=7 l=1
X4 vdd.t138 a_n6972_8799.t36 CSoutput.t63 vdd.t35 sky130_fd_pr__pfet_01v8_lvt ad=1.32 pd=8.33 as=1.32 ps=8.33 w=8 l=0.5
X5 a_n1986_8322.t19 a_n2848_n452.t48 vdd.t154 vdd.t153 sky130_fd_pr__pfet_01v8_lvt ad=1.485 pd=9.33 as=1.485 ps=9.33 w=9 l=0.5
X6 a_n1808_13878.t11 a_n2848_n452.t45 a_n2848_n452.t46 vdd.t148 sky130_fd_pr__pfet_01v8_lvt ad=1.485 pd=9.33 as=3.51 ps=18.78 w=9 l=0.5
X7 a_n6972_8799.t20 plus.t5 a_n3106_n452.t27 gnd.t99 sky130_fd_pr__nfet_01v8 ad=1.155 pd=7.33 as=1.155 ps=7.33 w=7 l=0.9
X8 output.t3 outputibias.t8 gnd.t101 gnd.t100 sky130_fd_pr__nfet_01v8 ad=2.34 pd=12.78 as=2.34 ps=12.78 w=6 l=2
X9 gnd.t92 commonsourceibias.t49 CSoutput.t126 gnd.t11 sky130_fd_pr__nfet_01v8 ad=1.155 pd=7.33 as=1.155 ps=7.33 w=7 l=1
X10 a_n3106_n452.t26 plus.t6 a_n6972_8799.t11 gnd.t4 sky130_fd_pr__nfet_01v8 ad=1.155 pd=7.33 as=1.155 ps=7.33 w=7 l=0.9
X11 vdd.t164 CSoutput.t144 output.t19 gnd.t93 sky130_fd_pr__nfet_01v8_lvt ad=0.825 pd=5.33 as=1.95 ps=10.78 w=5 l=1
X12 a_n2848_n452.t40 a_n2848_n452.t39 a_n1808_13878.t10 vdd.t142 sky130_fd_pr__pfet_01v8_lvt ad=1.485 pd=9.33 as=1.485 ps=9.33 w=9 l=0.5
X13 a_n1808_13878.t9 a_n2848_n452.t43 a_n2848_n452.t44 vdd.t10 sky130_fd_pr__pfet_01v8_lvt ad=1.485 pd=9.33 as=1.485 ps=9.33 w=9 l=0.5
X14 vdd.t255 vdd.t253 vdd.t254 vdd.t231 sky130_fd_pr__pfet_01v8_lvt ad=3.51 pd=18.78 as=0 ps=0 w=9 l=0.5
X15 CSoutput.t76 a_n6972_8799.t37 vdd.t137 vdd.t87 sky130_fd_pr__pfet_01v8_lvt ad=1.32 pd=8.33 as=1.32 ps=8.33 w=8 l=0.5
X16 a_n1808_13878.t19 a_n2848_n452.t49 vdd.t156 vdd.t155 sky130_fd_pr__pfet_01v8_lvt ad=1.485 pd=9.33 as=1.485 ps=9.33 w=9 l=0.5
X17 gnd.t53 commonsourceibias.t44 commonsourceibias.t45 gnd.t44 sky130_fd_pr__nfet_01v8 ad=1.155 pd=7.33 as=1.155 ps=7.33 w=7 l=1
X18 vdd.t176 CSoutput.t145 output.t18 gnd.t94 sky130_fd_pr__nfet_01v8_lvt ad=0.825 pd=5.33 as=0.825 ps=5.33 w=5 l=1
X19 vdd.t252 vdd.t250 vdd.t251 vdd.t189 sky130_fd_pr__pfet_01v8_lvt ad=3.12 pd=16.78 as=0 ps=0 w=8 l=0.5
X20 CSoutput.t56 a_n6972_8799.t38 vdd.t136 vdd.t17 sky130_fd_pr__pfet_01v8_lvt ad=1.32 pd=8.33 as=1.32 ps=8.33 w=8 l=0.5
X21 vdd.t135 a_n6972_8799.t39 CSoutput.t44 vdd.t82 sky130_fd_pr__pfet_01v8_lvt ad=1.32 pd=8.33 as=1.32 ps=8.33 w=8 l=0.5
X22 gnd.t63 commonsourceibias.t50 CSoutput.t125 gnd.t44 sky130_fd_pr__nfet_01v8 ad=1.155 pd=7.33 as=1.155 ps=7.33 w=7 l=1
X23 outputibias.t7 outputibias.t6 gnd.t262 gnd.t261 sky130_fd_pr__nfet_01v8 ad=2.34 pd=12.78 as=2.34 ps=12.78 w=6 l=2
X24 CSoutput.t20 a_n6972_8799.t40 vdd.t134 vdd.t21 sky130_fd_pr__pfet_01v8_lvt ad=1.32 pd=8.33 as=1.32 ps=8.33 w=8 l=0.5
X25 a_n1986_8322.t11 a_n2848_n452.t50 a_n6972_8799.t12 vdd.t147 sky130_fd_pr__pfet_01v8_lvt ad=1.485 pd=9.33 as=1.485 ps=9.33 w=9 l=0.5
X26 a_n2848_n452.t17 minus.t5 a_n3106_n452.t49 gnd.t255 sky130_fd_pr__nfet_01v8 ad=1.155 pd=7.33 as=1.155 ps=7.33 w=7 l=0.9
X27 a_n6972_8799.t5 plus.t7 a_n3106_n452.t25 gnd.t34 sky130_fd_pr__nfet_01v8 ad=1.155 pd=7.33 as=1.155 ps=7.33 w=7 l=0.9
X28 gnd.t90 commonsourceibias.t42 commonsourceibias.t43 gnd.t55 sky130_fd_pr__nfet_01v8 ad=1.155 pd=7.33 as=1.155 ps=7.33 w=7 l=1
X29 CSoutput.t69 a_n6972_8799.t41 vdd.t133 vdd.t53 sky130_fd_pr__pfet_01v8_lvt ad=1.32 pd=8.33 as=1.32 ps=8.33 w=8 l=0.5
X30 plus.t4 gnd.t212 gnd.t214 gnd.t213 sky130_fd_pr__nfet_01v8 ad=0.165 pd=1.33 as=0.165 ps=1.33 w=1 l=0.5
X31 a_n2848_n452.t16 minus.t6 a_n3106_n452.t48 gnd.t233 sky130_fd_pr__nfet_01v8 ad=1.155 pd=7.33 as=1.155 ps=7.33 w=7 l=0.9
X32 vdd.t132 a_n6972_8799.t42 CSoutput.t134 vdd.t76 sky130_fd_pr__pfet_01v8_lvt ad=1.32 pd=8.33 as=1.32 ps=8.33 w=8 l=0.5
X33 CSoutput.t124 commonsourceibias.t51 gnd.t43 gnd.t9 sky130_fd_pr__nfet_01v8 ad=1.155 pd=7.33 as=1.155 ps=7.33 w=7 l=1
X34 CSoutput.t146 a_n1986_8322.t20 sky130_fd_pr__cap_mim_m3_1 l=12 w=12
X35 gnd.t227 commonsourceibias.t40 commonsourceibias.t41 gnd.t25 sky130_fd_pr__nfet_01v8 ad=1.155 pd=7.33 as=1.155 ps=7.33 w=7 l=1
X36 CSoutput.t74 a_n6972_8799.t43 vdd.t131 vdd.t55 sky130_fd_pr__pfet_01v8_lvt ad=1.32 pd=8.33 as=1.32 ps=8.33 w=8 l=0.5
X37 vdd.t130 a_n6972_8799.t44 CSoutput.t0 vdd.t96 sky130_fd_pr__pfet_01v8_lvt ad=1.32 pd=8.33 as=1.32 ps=8.33 w=8 l=0.5
X38 a_n3106_n452.t24 plus.t8 a_n6972_8799.t32 gnd.t110 sky130_fd_pr__nfet_01v8 ad=1.155 pd=7.33 as=1.155 ps=7.33 w=7 l=0.9
X39 a_n6972_8799.t13 a_n2848_n452.t51 a_n1986_8322.t10 vdd.t148 sky130_fd_pr__pfet_01v8_lvt ad=1.485 pd=9.33 as=3.51 ps=18.78 w=9 l=0.5
X40 CSoutput.t67 a_n6972_8799.t45 vdd.t129 vdd.t11 sky130_fd_pr__pfet_01v8_lvt ad=1.32 pd=8.33 as=3.12 ps=16.78 w=8 l=0.5
X41 vdd.t128 a_n6972_8799.t46 CSoutput.t42 vdd.t118 sky130_fd_pr__pfet_01v8_lvt ad=1.32 pd=8.33 as=1.32 ps=8.33 w=8 l=0.5
X42 a_n3106_n452.t47 minus.t7 a_n2848_n452.t15 gnd.t222 sky130_fd_pr__nfet_01v8 ad=1.155 pd=7.33 as=1.155 ps=7.33 w=7 l=0.9
X43 CSoutput.t123 commonsourceibias.t52 gnd.t59 gnd.t58 sky130_fd_pr__nfet_01v8 ad=1.155 pd=7.33 as=1.155 ps=7.33 w=7 l=1
X44 a_n3106_n452.t0 diffpairibias.t16 gnd.t3 gnd.t2 sky130_fd_pr__nfet_01v8 ad=2.73 pd=14.78 as=2.73 ps=14.78 w=7 l=1
X45 output.t17 CSoutput.t147 vdd.t172 gnd.t283 sky130_fd_pr__nfet_01v8_lvt ad=0.825 pd=5.33 as=0.825 ps=5.33 w=5 l=1
X46 vdd.t170 CSoutput.t148 output.t16 gnd.t284 sky130_fd_pr__nfet_01v8_lvt ad=0.825 pd=5.33 as=0.825 ps=5.33 w=5 l=1
X47 CSoutput.t122 commonsourceibias.t53 gnd.t30 gnd.t29 sky130_fd_pr__nfet_01v8 ad=1.155 pd=7.33 as=1.155 ps=7.33 w=7 l=1
X48 CSoutput.t24 a_n6972_8799.t47 vdd.t127 vdd.t45 sky130_fd_pr__pfet_01v8_lvt ad=1.32 pd=8.33 as=1.32 ps=8.33 w=8 l=0.5
X49 CSoutput.t128 a_n6972_8799.t48 vdd.t126 vdd.t87 sky130_fd_pr__pfet_01v8_lvt ad=1.32 pd=8.33 as=1.32 ps=8.33 w=8 l=0.5
X50 vdd.t249 vdd.t247 vdd.t248 vdd.t181 sky130_fd_pr__pfet_01v8_lvt ad=3.12 pd=16.78 as=0 ps=0 w=8 l=0.5
X51 vdd.t246 vdd.t244 vdd.t245 vdd.t189 sky130_fd_pr__pfet_01v8_lvt ad=3.12 pd=16.78 as=0 ps=0 w=8 l=0.5
X52 CSoutput.t121 commonsourceibias.t54 gnd.t291 gnd.t263 sky130_fd_pr__nfet_01v8 ad=1.155 pd=7.33 as=2.73 ps=14.78 w=7 l=1
X53 gnd.t211 gnd.t209 gnd.t210 gnd.t157 sky130_fd_pr__nfet_01v8 ad=2.73 pd=14.78 as=0 ps=0 w=7 l=0.9
X54 CSoutput.t4 a_n6972_8799.t49 vdd.t125 vdd.t21 sky130_fd_pr__pfet_01v8_lvt ad=1.32 pd=8.33 as=1.32 ps=8.33 w=8 l=0.5
X55 a_n3106_n452.t23 plus.t9 a_n6972_8799.t17 gnd.t80 sky130_fd_pr__nfet_01v8 ad=1.155 pd=7.33 as=1.155 ps=7.33 w=7 l=0.9
X56 a_n1808_13878.t8 a_n2848_n452.t33 a_n2848_n452.t34 vdd.t159 sky130_fd_pr__pfet_01v8_lvt ad=1.485 pd=9.33 as=3.51 ps=18.78 w=9 l=0.5
X57 vdd.t124 a_n6972_8799.t50 CSoutput.t2 vdd.t118 sky130_fd_pr__pfet_01v8_lvt ad=1.32 pd=8.33 as=1.32 ps=8.33 w=8 l=0.5
X58 a_n3106_n452.t22 plus.t10 a_n6972_8799.t26 gnd.t232 sky130_fd_pr__nfet_01v8 ad=1.155 pd=7.33 as=1.155 ps=7.33 w=7 l=0.9
X59 a_n3106_n452.t46 minus.t8 a_n2848_n452.t14 gnd.t1 sky130_fd_pr__nfet_01v8 ad=2.73 pd=14.78 as=1.155 ps=7.33 w=7 l=0.9
X60 diffpairibias.t15 diffpairibias.t14 gnd.t229 gnd.t228 sky130_fd_pr__nfet_01v8 ad=2.73 pd=14.78 as=2.73 ps=14.78 w=7 l=1
X61 a_n2848_n452.t36 a_n2848_n452.t35 a_n1808_13878.t7 vdd.t152 sky130_fd_pr__pfet_01v8_lvt ad=1.485 pd=9.33 as=1.485 ps=9.33 w=9 l=0.5
X62 CSoutput.t78 a_n6972_8799.t51 vdd.t123 vdd.t80 sky130_fd_pr__pfet_01v8_lvt ad=1.32 pd=8.33 as=1.32 ps=8.33 w=8 l=0.5
X63 gnd.t208 gnd.t206 gnd.t207 gnd.t203 sky130_fd_pr__nfet_01v8 ad=2.73 pd=14.78 as=0 ps=0 w=7 l=1
X64 vdd.t243 vdd.t241 vdd.t242 vdd.t216 sky130_fd_pr__pfet_01v8_lvt ad=3.51 pd=18.78 as=0 ps=0 w=9 l=0.5
X65 CSoutput.t71 a_n6972_8799.t52 vdd.t122 vdd.t53 sky130_fd_pr__pfet_01v8_lvt ad=1.32 pd=8.33 as=1.32 ps=8.33 w=8 l=0.5
X66 vdd.t121 a_n6972_8799.t53 CSoutput.t129 vdd.t76 sky130_fd_pr__pfet_01v8_lvt ad=1.32 pd=8.33 as=1.32 ps=8.33 w=8 l=0.5
X67 gnd.t12 commonsourceibias.t55 CSoutput.t120 gnd.t11 sky130_fd_pr__nfet_01v8 ad=1.155 pd=7.33 as=1.155 ps=7.33 w=7 l=1
X68 gnd.t106 commonsourceibias.t56 CSoutput.t119 gnd.t105 sky130_fd_pr__nfet_01v8 ad=1.155 pd=7.33 as=1.155 ps=7.33 w=7 l=1
X69 diffpairibias.t13 diffpairibias.t12 gnd.t225 gnd.t224 sky130_fd_pr__nfet_01v8 ad=2.73 pd=14.78 as=2.73 ps=14.78 w=7 l=1
X70 CSoutput.t130 a_n6972_8799.t54 vdd.t120 vdd.t84 sky130_fd_pr__pfet_01v8_lvt ad=1.32 pd=8.33 as=1.32 ps=8.33 w=8 l=0.5
X71 gnd.t287 commonsourceibias.t57 CSoutput.t118 gnd.t25 sky130_fd_pr__nfet_01v8 ad=1.155 pd=7.33 as=1.155 ps=7.33 w=7 l=1
X72 commonsourceibias.t39 commonsourceibias.t38 gnd.t10 gnd.t9 sky130_fd_pr__nfet_01v8 ad=1.155 pd=7.33 as=1.155 ps=7.33 w=7 l=1
X73 vdd.t119 a_n6972_8799.t55 CSoutput.t22 vdd.t118 sky130_fd_pr__pfet_01v8_lvt ad=1.32 pd=8.33 as=1.32 ps=8.33 w=8 l=0.5
X74 vdd.t117 a_n6972_8799.t56 CSoutput.t131 vdd.t27 sky130_fd_pr__pfet_01v8_lvt ad=1.32 pd=8.33 as=1.32 ps=8.33 w=8 l=0.5
X75 vdd.t178 CSoutput.t149 output.t15 gnd.t285 sky130_fd_pr__nfet_01v8_lvt ad=0.825 pd=5.33 as=0.825 ps=5.33 w=5 l=1
X76 CSoutput.t135 a_n6972_8799.t57 vdd.t116 vdd.t33 sky130_fd_pr__pfet_01v8_lvt ad=1.32 pd=8.33 as=3.12 ps=16.78 w=8 l=0.5
X77 vdd.t115 a_n6972_8799.t58 CSoutput.t10 vdd.t74 sky130_fd_pr__pfet_01v8_lvt ad=1.32 pd=8.33 as=1.32 ps=8.33 w=8 l=0.5
X78 CSoutput.t23 a_n6972_8799.t59 vdd.t114 vdd.t11 sky130_fd_pr__pfet_01v8_lvt ad=1.32 pd=8.33 as=3.12 ps=16.78 w=8 l=0.5
X79 a_n3106_n452.t45 minus.t9 a_n2848_n452.t13 gnd.t234 sky130_fd_pr__nfet_01v8 ad=1.155 pd=7.33 as=1.155 ps=7.33 w=7 l=0.9
X80 a_n3106_n452.t21 plus.t11 a_n6972_8799.t15 gnd.t54 sky130_fd_pr__nfet_01v8 ad=2.73 pd=14.78 as=1.155 ps=7.33 w=7 l=0.9
X81 vdd.t113 a_n6972_8799.t60 CSoutput.t34 vdd.t15 sky130_fd_pr__pfet_01v8_lvt ad=1.32 pd=8.33 as=1.32 ps=8.33 w=8 l=0.5
X82 gnd.t248 commonsourceibias.t58 CSoutput.t117 gnd.t246 sky130_fd_pr__nfet_01v8 ad=1.155 pd=7.33 as=1.155 ps=7.33 w=7 l=1
X83 a_n6972_8799.t16 plus.t12 a_n3106_n452.t20 gnd.t79 sky130_fd_pr__nfet_01v8 ad=1.155 pd=7.33 as=1.155 ps=7.33 w=7 l=0.9
X84 commonsourceibias.t37 commonsourceibias.t36 gnd.t257 gnd.t51 sky130_fd_pr__nfet_01v8 ad=1.155 pd=7.33 as=1.155 ps=7.33 w=7 l=1
X85 CSoutput.t133 a_n6972_8799.t61 vdd.t112 vdd.t45 sky130_fd_pr__pfet_01v8_lvt ad=1.32 pd=8.33 as=1.32 ps=8.33 w=8 l=0.5
X86 CSoutput.t50 a_n6972_8799.t62 vdd.t111 vdd.t100 sky130_fd_pr__pfet_01v8_lvt ad=1.32 pd=8.33 as=1.32 ps=8.33 w=8 l=0.5
X87 a_n3106_n452.t43 diffpairibias.t17 gnd.t253 gnd.t252 sky130_fd_pr__nfet_01v8 ad=2.73 pd=14.78 as=2.73 ps=14.78 w=7 l=1
X88 gnd.t282 commonsourceibias.t34 commonsourceibias.t35 gnd.t246 sky130_fd_pr__nfet_01v8 ad=1.155 pd=7.33 as=1.155 ps=7.33 w=7 l=1
X89 CSoutput.t39 a_n6972_8799.t63 vdd.t110 vdd.t100 sky130_fd_pr__pfet_01v8_lvt ad=1.32 pd=8.33 as=1.32 ps=8.33 w=8 l=0.5
X90 a_n3106_n452.t19 plus.t13 a_n6972_8799.t31 gnd.t96 sky130_fd_pr__nfet_01v8 ad=1.155 pd=7.33 as=1.155 ps=7.33 w=7 l=0.9
X91 vdd.t109 a_n6972_8799.t64 CSoutput.t29 vdd.t98 sky130_fd_pr__pfet_01v8_lvt ad=1.32 pd=8.33 as=1.32 ps=8.33 w=8 l=0.5
X92 gnd.t36 commonsourceibias.t32 commonsourceibias.t33 gnd.t5 sky130_fd_pr__nfet_01v8 ad=2.73 pd=14.78 as=1.155 ps=7.33 w=7 l=1
X93 commonsourceibias.t31 commonsourceibias.t30 gnd.t73 gnd.t29 sky130_fd_pr__nfet_01v8 ad=1.155 pd=7.33 as=1.155 ps=7.33 w=7 l=1
X94 a_n2848_n452.t24 a_n2848_n452.t23 a_n1808_13878.t6 vdd.t147 sky130_fd_pr__pfet_01v8_lvt ad=1.485 pd=9.33 as=1.485 ps=9.33 w=9 l=0.5
X95 outputibias.t5 outputibias.t4 gnd.t274 gnd.t273 sky130_fd_pr__nfet_01v8 ad=2.34 pd=12.78 as=2.34 ps=12.78 w=6 l=2
X96 a_n2848_n452.t26 a_n2848_n452.t25 a_n1808_13878.t5 vdd.t6 sky130_fd_pr__pfet_01v8_lvt ad=3.51 pd=18.78 as=1.485 ps=9.33 w=9 l=0.5
X97 vdd.t108 a_n6972_8799.t65 CSoutput.t141 vdd.t96 sky130_fd_pr__pfet_01v8_lvt ad=1.32 pd=8.33 as=1.32 ps=8.33 w=8 l=0.5
X98 vdd.t107 a_n6972_8799.t66 CSoutput.t51 vdd.t57 sky130_fd_pr__pfet_01v8_lvt ad=1.32 pd=8.33 as=1.32 ps=8.33 w=8 l=0.5
X99 a_n6972_8799.t2 a_n2848_n452.t52 a_n1986_8322.t9 vdd.t0 sky130_fd_pr__pfet_01v8_lvt ad=1.485 pd=9.33 as=1.485 ps=9.33 w=9 l=0.5
X100 CSoutput.t116 commonsourceibias.t59 gnd.t104 gnd.t58 sky130_fd_pr__nfet_01v8 ad=1.155 pd=7.33 as=1.155 ps=7.33 w=7 l=1
X101 vdd.t106 a_n6972_8799.t67 CSoutput.t40 vdd.t98 sky130_fd_pr__pfet_01v8_lvt ad=1.32 pd=8.33 as=1.32 ps=8.33 w=8 l=0.5
X102 a_n2848_n452.t18 minus.t10 a_n3106_n452.t50 gnd.t47 sky130_fd_pr__nfet_01v8 ad=1.155 pd=7.33 as=2.73 ps=14.78 w=7 l=0.9
X103 CSoutput.t115 commonsourceibias.t60 gnd.t87 gnd.t86 sky130_fd_pr__nfet_01v8 ad=1.155 pd=7.33 as=1.155 ps=7.33 w=7 l=1
X104 vdd.t105 a_n6972_8799.t68 CSoutput.t54 vdd.t31 sky130_fd_pr__pfet_01v8_lvt ad=1.32 pd=8.33 as=1.32 ps=8.33 w=8 l=0.5
X105 gnd.t78 commonsourceibias.t61 CSoutput.t114 gnd.t5 sky130_fd_pr__nfet_01v8 ad=2.73 pd=14.78 as=1.155 ps=7.33 w=7 l=1
X106 gnd.t205 gnd.t202 gnd.t204 gnd.t203 sky130_fd_pr__nfet_01v8 ad=2.73 pd=14.78 as=0 ps=0 w=7 l=1
X107 commonsourceibias.t29 commonsourceibias.t28 gnd.t279 gnd.t41 sky130_fd_pr__nfet_01v8 ad=1.155 pd=7.33 as=1.155 ps=7.33 w=7 l=1
X108 CSoutput.t58 a_n6972_8799.t69 vdd.t104 vdd.t59 sky130_fd_pr__pfet_01v8_lvt ad=1.32 pd=8.33 as=1.32 ps=8.33 w=8 l=0.5
X109 CSoutput.t113 commonsourceibias.t62 gnd.t264 gnd.t263 sky130_fd_pr__nfet_01v8 ad=1.155 pd=7.33 as=2.73 ps=14.78 w=7 l=1
X110 CSoutput.t150 a_n1986_8322.t21 sky130_fd_pr__cap_mim_m3_1 l=12 w=12
X111 outputibias.t3 outputibias.t2 gnd.t38 gnd.t37 sky130_fd_pr__nfet_01v8 ad=2.34 pd=12.78 as=2.34 ps=12.78 w=6 l=2
X112 vdd.t103 a_n6972_8799.t70 CSoutput.t45 vdd.t74 sky130_fd_pr__pfet_01v8_lvt ad=1.32 pd=8.33 as=1.32 ps=8.33 w=8 l=0.5
X113 vdd.t240 vdd.t238 vdd.t239 vdd.t224 sky130_fd_pr__pfet_01v8_lvt ad=3.51 pd=18.78 as=0 ps=0 w=9 l=0.5
X114 CSoutput.t77 a_n6972_8799.t71 vdd.t102 vdd.t33 sky130_fd_pr__pfet_01v8_lvt ad=1.32 pd=8.33 as=3.12 ps=16.78 w=8 l=0.5
X115 vdd.t237 vdd.t234 vdd.t236 vdd.t235 sky130_fd_pr__pfet_01v8_lvt ad=3.51 pd=18.78 as=0 ps=0 w=9 l=0.5
X116 a_n3106_n452.t31 diffpairibias.t18 gnd.t65 gnd.t64 sky130_fd_pr__nfet_01v8 ad=2.73 pd=14.78 as=2.73 ps=14.78 w=7 l=1
X117 vdd.t233 vdd.t230 vdd.t232 vdd.t231 sky130_fd_pr__pfet_01v8_lvt ad=3.51 pd=18.78 as=0 ps=0 w=9 l=0.5
X118 gnd.t201 gnd.t199 minus.t4 gnd.t200 sky130_fd_pr__nfet_01v8 ad=0.39 pd=2.78 as=0.165 ps=1.33 w=1 l=0.5
X119 gnd.t198 gnd.t196 gnd.t197 gnd.t143 sky130_fd_pr__nfet_01v8 ad=2.73 pd=14.78 as=0 ps=0 w=7 l=0.9
X120 commonsourceibias.t27 commonsourceibias.t26 gnd.t89 gnd.t86 sky130_fd_pr__nfet_01v8 ad=1.155 pd=7.33 as=1.155 ps=7.33 w=7 l=1
X121 vdd.t2 a_n2848_n452.t53 a_n1986_8322.t18 vdd.t1 sky130_fd_pr__pfet_01v8_lvt ad=1.485 pd=9.33 as=1.485 ps=9.33 w=9 l=0.5
X122 vdd.t229 vdd.t227 vdd.t228 vdd.t220 sky130_fd_pr__pfet_01v8_lvt ad=3.51 pd=18.78 as=0 ps=0 w=9 l=0.5
X123 CSoutput.t79 a_n6972_8799.t72 vdd.t101 vdd.t100 sky130_fd_pr__pfet_01v8_lvt ad=1.32 pd=8.33 as=1.32 ps=8.33 w=8 l=0.5
X124 a_n1986_8322.t17 a_n2848_n452.t54 vdd.t261 vdd.t260 sky130_fd_pr__pfet_01v8_lvt ad=1.485 pd=9.33 as=1.485 ps=9.33 w=9 l=0.5
X125 vdd.t99 a_n6972_8799.t73 CSoutput.t28 vdd.t98 sky130_fd_pr__pfet_01v8_lvt ad=1.32 pd=8.33 as=1.32 ps=8.33 w=8 l=0.5
X126 gnd.t266 commonsourceibias.t24 commonsourceibias.t25 gnd.t11 sky130_fd_pr__nfet_01v8 ad=1.155 pd=7.33 as=1.155 ps=7.33 w=7 l=1
X127 gnd.t281 commonsourceibias.t63 CSoutput.t112 gnd.t105 sky130_fd_pr__nfet_01v8 ad=1.155 pd=7.33 as=1.155 ps=7.33 w=7 l=1
X128 vdd.t263 a_n2848_n452.t55 a_n1808_13878.t18 vdd.t262 sky130_fd_pr__pfet_01v8_lvt ad=1.485 pd=9.33 as=1.485 ps=9.33 w=9 l=0.5
X129 gnd.t195 gnd.t193 plus.t3 gnd.t194 sky130_fd_pr__nfet_01v8 ad=0.39 pd=2.78 as=0.165 ps=1.33 w=1 l=0.5
X130 gnd.t26 commonsourceibias.t64 CSoutput.t111 gnd.t25 sky130_fd_pr__nfet_01v8 ad=1.155 pd=7.33 as=1.155 ps=7.33 w=7 l=1
X131 a_n2848_n452.t22 minus.t11 a_n3106_n452.t54 gnd.t226 sky130_fd_pr__nfet_01v8 ad=1.155 pd=7.33 as=1.155 ps=7.33 w=7 l=0.9
X132 a_n6972_8799.t33 plus.t14 a_n3106_n452.t18 gnd.t107 sky130_fd_pr__nfet_01v8 ad=1.155 pd=7.33 as=2.73 ps=14.78 w=7 l=0.9
X133 gnd.t265 commonsourceibias.t65 CSoutput.t110 gnd.t240 sky130_fd_pr__nfet_01v8 ad=2.73 pd=14.78 as=1.155 ps=7.33 w=7 l=1
X134 vdd.t226 vdd.t223 vdd.t225 vdd.t224 sky130_fd_pr__pfet_01v8_lvt ad=3.51 pd=18.78 as=0 ps=0 w=9 l=0.5
X135 a_n6972_8799.t23 plus.t15 a_n3106_n452.t17 gnd.t74 sky130_fd_pr__nfet_01v8 ad=1.155 pd=7.33 as=1.155 ps=7.33 w=7 l=0.9
X136 a_n2848_n452.t21 minus.t12 a_n3106_n452.t53 gnd.t254 sky130_fd_pr__nfet_01v8 ad=1.155 pd=7.33 as=1.155 ps=7.33 w=7 l=0.9
X137 diffpairibias.t11 diffpairibias.t10 gnd.t40 gnd.t39 sky130_fd_pr__nfet_01v8 ad=2.73 pd=14.78 as=2.73 ps=14.78 w=7 l=1
X138 vdd.t175 CSoutput.t151 output.t14 gnd.t68 sky130_fd_pr__nfet_01v8_lvt ad=0.825 pd=5.33 as=0.825 ps=5.33 w=5 l=1
X139 vdd.t222 vdd.t219 vdd.t221 vdd.t220 sky130_fd_pr__pfet_01v8_lvt ad=3.51 pd=18.78 as=0 ps=0 w=9 l=0.5
X140 vdd.t97 a_n6972_8799.t74 CSoutput.t143 vdd.t96 sky130_fd_pr__pfet_01v8_lvt ad=1.32 pd=8.33 as=1.32 ps=8.33 w=8 l=0.5
X141 gnd.t267 commonsourceibias.t66 CSoutput.t109 gnd.t7 sky130_fd_pr__nfet_01v8 ad=1.155 pd=7.33 as=1.155 ps=7.33 w=7 l=1
X142 outputibias.t1 outputibias.t0 gnd.t278 gnd.t277 sky130_fd_pr__nfet_01v8 ad=2.34 pd=12.78 as=2.34 ps=12.78 w=6 l=2
X143 a_n6972_8799.t22 a_n2848_n452.t56 a_n1986_8322.t8 vdd.t149 sky130_fd_pr__pfet_01v8_lvt ad=1.485 pd=9.33 as=1.485 ps=9.33 w=9 l=0.5
X144 a_n1986_8322.t16 a_n2848_n452.t57 vdd.t163 vdd.t162 sky130_fd_pr__pfet_01v8_lvt ad=3.51 pd=18.78 as=1.485 ps=9.33 w=9 l=0.5
X145 vdd.t218 vdd.t215 vdd.t217 vdd.t216 sky130_fd_pr__pfet_01v8_lvt ad=3.51 pd=18.78 as=0 ps=0 w=9 l=0.5
X146 gnd.t247 commonsourceibias.t67 CSoutput.t108 gnd.t246 sky130_fd_pr__nfet_01v8 ad=1.155 pd=7.33 as=1.155 ps=7.33 w=7 l=1
X147 vdd.t95 a_n6972_8799.t75 CSoutput.t49 vdd.t31 sky130_fd_pr__pfet_01v8_lvt ad=1.32 pd=8.33 as=1.32 ps=8.33 w=8 l=0.5
X148 a_n2848_n452.t42 a_n2848_n452.t41 a_n1808_13878.t4 vdd.t9 sky130_fd_pr__pfet_01v8_lvt ad=1.485 pd=9.33 as=1.485 ps=9.33 w=9 l=0.5
X149 a_n3106_n452.t52 minus.t13 a_n2848_n452.t20 gnd.t97 sky130_fd_pr__nfet_01v8 ad=1.155 pd=7.33 as=1.155 ps=7.33 w=7 l=0.9
X150 CSoutput.t152 a_n1986_8322.t23 sky130_fd_pr__cap_mim_m3_1 l=12 w=12
X151 CSoutput.t30 a_n6972_8799.t76 vdd.t94 vdd.t59 sky130_fd_pr__pfet_01v8_lvt ad=1.32 pd=8.33 as=1.32 ps=8.33 w=8 l=0.5
X152 a_n6972_8799.t9 a_n2848_n452.t58 a_n1986_8322.t7 vdd.t10 sky130_fd_pr__pfet_01v8_lvt ad=1.485 pd=9.33 as=1.485 ps=9.33 w=9 l=0.5
X153 CSoutput.t107 commonsourceibias.t68 gnd.t237 gnd.t23 sky130_fd_pr__nfet_01v8 ad=1.155 pd=7.33 as=1.155 ps=7.33 w=7 l=1
X154 CSoutput.t153 a_n1986_8322.t22 sky130_fd_pr__cap_mim_m3_1 l=12 w=12
X155 a_n1808_13878.t3 a_n2848_n452.t27 a_n2848_n452.t28 vdd.t0 sky130_fd_pr__pfet_01v8_lvt ad=1.485 pd=9.33 as=1.485 ps=9.33 w=9 l=0.5
X156 a_n3106_n452.t16 plus.t16 a_n6972_8799.t35 gnd.t286 sky130_fd_pr__nfet_01v8 ad=1.155 pd=7.33 as=1.155 ps=7.33 w=7 l=0.9
X157 a_n2848_n452.t19 minus.t14 a_n3106_n452.t51 gnd.t99 sky130_fd_pr__nfet_01v8 ad=1.155 pd=7.33 as=1.155 ps=7.33 w=7 l=0.9
X158 vdd.t93 a_n6972_8799.t77 CSoutput.t138 vdd.t82 sky130_fd_pr__pfet_01v8_lvt ad=1.32 pd=8.33 as=1.32 ps=8.33 w=8 l=0.5
X159 CSoutput.t32 a_n6972_8799.t78 vdd.t92 vdd.t84 sky130_fd_pr__pfet_01v8_lvt ad=1.32 pd=8.33 as=1.32 ps=8.33 w=8 l=0.5
X160 vdd.t141 a_n2848_n452.t59 a_n1986_8322.t15 vdd.t140 sky130_fd_pr__pfet_01v8_lvt ad=1.485 pd=9.33 as=3.51 ps=18.78 w=9 l=0.5
X161 gnd.t192 gnd.t189 gnd.t191 gnd.t190 sky130_fd_pr__nfet_01v8 ad=2.73 pd=14.78 as=0 ps=0 w=7 l=1
X162 a_n3106_n452.t28 diffpairibias.t19 gnd.t50 gnd.t49 sky130_fd_pr__nfet_01v8 ad=2.73 pd=14.78 as=2.73 ps=14.78 w=7 l=1
X163 CSoutput.t46 a_n6972_8799.t79 vdd.t91 vdd.t80 sky130_fd_pr__pfet_01v8_lvt ad=1.32 pd=8.33 as=1.32 ps=8.33 w=8 l=0.5
X164 CSoutput.t106 commonsourceibias.t69 gnd.t98 gnd.t86 sky130_fd_pr__nfet_01v8 ad=1.155 pd=7.33 as=1.155 ps=7.33 w=7 l=1
X165 a_n6972_8799.t0 plus.t17 a_n3106_n452.t15 gnd.t0 sky130_fd_pr__nfet_01v8 ad=1.155 pd=7.33 as=1.155 ps=7.33 w=7 l=0.9
X166 CSoutput.t105 commonsourceibias.t70 gnd.t14 gnd.t13 sky130_fd_pr__nfet_01v8 ad=1.155 pd=7.33 as=1.155 ps=7.33 w=7 l=1
X167 a_n3106_n452.t32 diffpairibias.t20 gnd.t67 gnd.t66 sky130_fd_pr__nfet_01v8 ad=2.73 pd=14.78 as=2.73 ps=14.78 w=7 l=1
X168 vdd.t90 a_n6972_8799.t80 CSoutput.t137 vdd.t13 sky130_fd_pr__pfet_01v8_lvt ad=3.12 pd=16.78 as=1.32 ps=8.33 w=8 l=0.5
X169 gnd.t6 commonsourceibias.t71 CSoutput.t104 gnd.t5 sky130_fd_pr__nfet_01v8 ad=2.73 pd=14.78 as=1.155 ps=7.33 w=7 l=1
X170 CSoutput.t103 commonsourceibias.t72 gnd.t62 gnd.t61 sky130_fd_pr__nfet_01v8 ad=1.155 pd=7.33 as=1.155 ps=7.33 w=7 l=1
X171 a_n6972_8799.t27 plus.t18 a_n3106_n452.t14 gnd.t233 sky130_fd_pr__nfet_01v8 ad=1.155 pd=7.33 as=1.155 ps=7.33 w=7 l=0.9
X172 vdd.t89 a_n6972_8799.t81 CSoutput.t27 vdd.t47 sky130_fd_pr__pfet_01v8_lvt ad=1.32 pd=8.33 as=1.32 ps=8.33 w=8 l=0.5
X173 minus.t3 gnd.t186 gnd.t188 gnd.t187 sky130_fd_pr__nfet_01v8 ad=0.165 pd=1.33 as=0.165 ps=1.33 w=1 l=0.5
X174 gnd.t185 gnd.t183 gnd.t184 gnd.t139 sky130_fd_pr__nfet_01v8 ad=2.73 pd=14.78 as=0 ps=0 w=7 l=1
X175 diffpairibias.t9 diffpairibias.t8 gnd.t271 gnd.t270 sky130_fd_pr__nfet_01v8 ad=2.73 pd=14.78 as=2.73 ps=14.78 w=7 l=1
X176 a_n2848_n452.t12 minus.t15 a_n3106_n452.t44 gnd.t35 sky130_fd_pr__nfet_01v8 ad=1.155 pd=7.33 as=1.155 ps=7.33 w=7 l=0.9
X177 CSoutput.t35 a_n6972_8799.t82 vdd.t88 vdd.t87 sky130_fd_pr__pfet_01v8_lvt ad=1.32 pd=8.33 as=1.32 ps=8.33 w=8 l=0.5
X178 a_n3106_n452.t13 plus.t19 a_n6972_8799.t24 gnd.t222 sky130_fd_pr__nfet_01v8 ad=1.155 pd=7.33 as=1.155 ps=7.33 w=7 l=0.9
X179 CSoutput.t142 a_n6972_8799.t83 vdd.t86 vdd.t66 sky130_fd_pr__pfet_01v8_lvt ad=1.32 pd=8.33 as=1.32 ps=8.33 w=8 l=0.5
X180 CSoutput.t102 commonsourceibias.t73 gnd.t236 gnd.t19 sky130_fd_pr__nfet_01v8 ad=1.155 pd=7.33 as=2.73 ps=14.78 w=7 l=1
X181 gnd.t56 commonsourceibias.t74 CSoutput.t101 gnd.t55 sky130_fd_pr__nfet_01v8 ad=1.155 pd=7.33 as=1.155 ps=7.33 w=7 l=1
X182 vdd.t214 vdd.t212 vdd.t213 vdd.t196 sky130_fd_pr__pfet_01v8_lvt ad=3.12 pd=16.78 as=0 ps=0 w=8 l=0.5
X183 a_n1808_13878.t17 a_n2848_n452.t60 vdd.t257 vdd.t256 sky130_fd_pr__pfet_01v8_lvt ad=1.485 pd=9.33 as=1.485 ps=9.33 w=9 l=0.5
X184 vdd.t259 a_n2848_n452.t61 a_n1808_13878.t16 vdd.t258 sky130_fd_pr__pfet_01v8_lvt ad=1.485 pd=9.33 as=1.485 ps=9.33 w=9 l=0.5
X185 gnd.t88 commonsourceibias.t22 commonsourceibias.t23 gnd.t76 sky130_fd_pr__nfet_01v8 ad=1.155 pd=7.33 as=1.155 ps=7.33 w=7 l=1
X186 gnd.t241 commonsourceibias.t75 CSoutput.t100 gnd.t240 sky130_fd_pr__nfet_01v8 ad=2.73 pd=14.78 as=1.155 ps=7.33 w=7 l=1
X187 output.t13 CSoutput.t154 vdd.t167 gnd.t27 sky130_fd_pr__nfet_01v8_lvt ad=0.825 pd=5.33 as=0.825 ps=5.33 w=5 l=1
X188 CSoutput.t59 a_n6972_8799.t84 vdd.t85 vdd.t84 sky130_fd_pr__pfet_01v8_lvt ad=1.32 pd=8.33 as=1.32 ps=8.33 w=8 l=0.5
X189 vdd.t83 a_n6972_8799.t85 CSoutput.t36 vdd.t82 sky130_fd_pr__pfet_01v8_lvt ad=1.32 pd=8.33 as=1.32 ps=8.33 w=8 l=0.5
X190 gnd.t8 commonsourceibias.t76 CSoutput.t99 gnd.t7 sky130_fd_pr__nfet_01v8 ad=1.155 pd=7.33 as=1.155 ps=7.33 w=7 l=1
X191 a_n3106_n452.t2 minus.t16 a_n2848_n452.t1 gnd.t31 sky130_fd_pr__nfet_01v8 ad=1.155 pd=7.33 as=1.155 ps=7.33 w=7 l=0.9
X192 diffpairibias.t7 diffpairibias.t6 gnd.t289 gnd.t288 sky130_fd_pr__nfet_01v8 ad=2.73 pd=14.78 as=2.73 ps=14.78 w=7 l=1
X193 CSoutput.t37 a_n6972_8799.t86 vdd.t81 vdd.t80 sky130_fd_pr__pfet_01v8_lvt ad=1.32 pd=8.33 as=1.32 ps=8.33 w=8 l=0.5
X194 gnd.t46 commonsourceibias.t20 commonsourceibias.t21 gnd.t7 sky130_fd_pr__nfet_01v8 ad=1.155 pd=7.33 as=1.155 ps=7.33 w=7 l=1
X195 output.t12 CSoutput.t155 vdd.t168 gnd.t28 sky130_fd_pr__nfet_01v8_lvt ad=0.825 pd=5.33 as=0.825 ps=5.33 w=5 l=1
X196 vdd.t79 a_n6972_8799.t87 CSoutput.t41 vdd.t13 sky130_fd_pr__pfet_01v8_lvt ad=3.12 pd=16.78 as=1.32 ps=8.33 w=8 l=0.5
X197 CSoutput.t98 commonsourceibias.t77 gnd.t111 gnd.t51 sky130_fd_pr__nfet_01v8 ad=1.155 pd=7.33 as=1.155 ps=7.33 w=7 l=1
X198 a_n3106_n452.t42 minus.t17 a_n2848_n452.t11 gnd.t232 sky130_fd_pr__nfet_01v8 ad=1.155 pd=7.33 as=1.155 ps=7.33 w=7 l=0.9
X199 a_n3106_n452.t12 plus.t20 a_n6972_8799.t1 gnd.t1 sky130_fd_pr__nfet_01v8 ad=2.73 pd=14.78 as=1.155 ps=7.33 w=7 l=0.9
X200 gnd.t182 gnd.t180 gnd.t181 gnd.t139 sky130_fd_pr__nfet_01v8 ad=2.73 pd=14.78 as=0 ps=0 w=7 l=1
X201 gnd.t179 gnd.t177 gnd.t178 gnd.t118 sky130_fd_pr__nfet_01v8 ad=2.73 pd=14.78 as=0 ps=0 w=7 l=1
X202 a_n1986_8322.t6 a_n2848_n452.t62 a_n6972_8799.t18 vdd.t142 sky130_fd_pr__pfet_01v8_lvt ad=1.485 pd=9.33 as=1.485 ps=9.33 w=9 l=0.5
X203 CSoutput.t17 a_n6972_8799.t88 vdd.t78 vdd.t42 sky130_fd_pr__pfet_01v8_lvt ad=1.32 pd=8.33 as=1.32 ps=8.33 w=8 l=0.5
X204 CSoutput.t97 commonsourceibias.t78 gnd.t24 gnd.t23 sky130_fd_pr__nfet_01v8 ad=1.155 pd=7.33 as=1.155 ps=7.33 w=7 l=1
X205 a_n3106_n452.t1 minus.t18 a_n2848_n452.t0 gnd.t4 sky130_fd_pr__nfet_01v8 ad=1.155 pd=7.33 as=1.155 ps=7.33 w=7 l=0.9
X206 vdd.t77 a_n6972_8799.t89 CSoutput.t43 vdd.t76 sky130_fd_pr__pfet_01v8_lvt ad=1.32 pd=8.33 as=1.32 ps=8.33 w=8 l=0.5
X207 vdd.t75 a_n6972_8799.t90 CSoutput.t8 vdd.t74 sky130_fd_pr__pfet_01v8_lvt ad=1.32 pd=8.33 as=1.32 ps=8.33 w=8 l=0.5
X208 CSoutput.t55 a_n6972_8799.t91 vdd.t73 vdd.t25 sky130_fd_pr__pfet_01v8_lvt ad=1.32 pd=8.33 as=1.32 ps=8.33 w=8 l=0.5
X209 vdd.t72 a_n6972_8799.t92 CSoutput.t11 vdd.t47 sky130_fd_pr__pfet_01v8_lvt ad=1.32 pd=8.33 as=1.32 ps=8.33 w=8 l=0.5
X210 vdd.t158 a_n2848_n452.t63 a_n1986_8322.t14 vdd.t157 sky130_fd_pr__pfet_01v8_lvt ad=1.485 pd=9.33 as=3.51 ps=18.78 w=9 l=0.5
X211 gnd.t33 commonsourceibias.t18 commonsourceibias.t19 gnd.t32 sky130_fd_pr__nfet_01v8 ad=1.155 pd=7.33 as=1.155 ps=7.33 w=7 l=1
X212 a_n1808_13878.t15 a_n2848_n452.t64 vdd.t8 vdd.t7 sky130_fd_pr__pfet_01v8_lvt ad=3.51 pd=18.78 as=1.485 ps=9.33 w=9 l=0.5
X213 gnd.t176 gnd.t173 gnd.t175 gnd.t174 sky130_fd_pr__nfet_01v8 ad=2.73 pd=14.78 as=0 ps=0 w=7 l=1
X214 minus.t2 gnd.t170 gnd.t172 gnd.t171 sky130_fd_pr__nfet_01v8 ad=0.165 pd=1.33 as=0.165 ps=1.33 w=1 l=0.5
X215 CSoutput.t96 commonsourceibias.t79 gnd.t75 gnd.t41 sky130_fd_pr__nfet_01v8 ad=1.155 pd=7.33 as=1.155 ps=7.33 w=7 l=1
X216 a_n3106_n452.t41 diffpairibias.t21 gnd.t245 gnd.t244 sky130_fd_pr__nfet_01v8 ad=2.73 pd=14.78 as=2.73 ps=14.78 w=7 l=1
X217 vdd.t71 a_n6972_8799.t93 CSoutput.t70 vdd.t57 sky130_fd_pr__pfet_01v8_lvt ad=1.32 pd=8.33 as=1.32 ps=8.33 w=8 l=0.5
X218 CSoutput.t73 a_n6972_8799.t94 vdd.t70 vdd.t66 sky130_fd_pr__pfet_01v8_lvt ad=1.32 pd=8.33 as=1.32 ps=8.33 w=8 l=0.5
X219 a_n6972_8799.t30 plus.t21 a_n3106_n452.t11 gnd.t255 sky130_fd_pr__nfet_01v8 ad=1.155 pd=7.33 as=1.155 ps=7.33 w=7 l=0.9
X220 a_n2848_n452.t4 minus.t19 a_n3106_n452.t30 gnd.t34 sky130_fd_pr__nfet_01v8 ad=1.155 pd=7.33 as=1.155 ps=7.33 w=7 l=0.9
X221 CSoutput.t95 commonsourceibias.t80 gnd.t48 gnd.t13 sky130_fd_pr__nfet_01v8 ad=1.155 pd=7.33 as=1.155 ps=7.33 w=7 l=1
X222 output.t11 CSoutput.t156 vdd.t166 gnd.t81 sky130_fd_pr__nfet_01v8_lvt ad=0.825 pd=5.33 as=0.825 ps=5.33 w=5 l=1
X223 CSoutput.t19 a_n6972_8799.t95 vdd.t69 vdd.t55 sky130_fd_pr__pfet_01v8_lvt ad=1.32 pd=8.33 as=1.32 ps=8.33 w=8 l=0.5
X224 a_n3106_n452.t29 minus.t20 a_n2848_n452.t3 gnd.t54 sky130_fd_pr__nfet_01v8 ad=2.73 pd=14.78 as=1.155 ps=7.33 w=7 l=0.9
X225 CSoutput.t157 a_n1986_8322.t21 sky130_fd_pr__cap_mim_m3_1 l=12 w=12
X226 vdd.t211 vdd.t209 vdd.t210 vdd.t196 sky130_fd_pr__pfet_01v8_lvt ad=3.12 pd=16.78 as=0 ps=0 w=8 l=0.5
X227 CSoutput.t94 commonsourceibias.t81 gnd.t95 gnd.t61 sky130_fd_pr__nfet_01v8 ad=1.155 pd=7.33 as=1.155 ps=7.33 w=7 l=1
X228 gnd.t169 gnd.t166 gnd.t168 gnd.t167 sky130_fd_pr__nfet_01v8_lvt ad=1.95 pd=10.78 as=0 ps=0 w=5 l=1
X229 a_n1986_8322.t5 a_n2848_n452.t65 a_n6972_8799.t4 vdd.t9 sky130_fd_pr__pfet_01v8_lvt ad=1.485 pd=9.33 as=1.485 ps=9.33 w=9 l=0.5
X230 vdd.t208 vdd.t206 vdd.t207 vdd.t185 sky130_fd_pr__pfet_01v8_lvt ad=3.12 pd=16.78 as=0 ps=0 w=8 l=0.5
X231 vdd.t151 a_n2848_n452.t66 a_n1986_8322.t13 vdd.t150 sky130_fd_pr__pfet_01v8_lvt ad=1.485 pd=9.33 as=1.485 ps=9.33 w=9 l=0.5
X232 vdd.t68 a_n6972_8799.t96 CSoutput.t38 vdd.t35 sky130_fd_pr__pfet_01v8_lvt ad=1.32 pd=8.33 as=1.32 ps=8.33 w=8 l=0.5
X233 CSoutput.t57 a_n6972_8799.t97 vdd.t67 vdd.t66 sky130_fd_pr__pfet_01v8_lvt ad=1.32 pd=8.33 as=1.32 ps=8.33 w=8 l=0.5
X234 gnd.t91 commonsourceibias.t82 CSoutput.t93 gnd.t32 sky130_fd_pr__nfet_01v8 ad=1.155 pd=7.33 as=1.155 ps=7.33 w=7 l=1
X235 output.t2 outputibias.t9 gnd.t18 gnd.t17 sky130_fd_pr__nfet_01v8 ad=2.34 pd=12.78 as=2.34 ps=12.78 w=6 l=2
X236 CSoutput.t140 a_n6972_8799.t98 vdd.t65 vdd.t29 sky130_fd_pr__pfet_01v8_lvt ad=1.32 pd=8.33 as=1.32 ps=8.33 w=8 l=0.5
X237 a_n3106_n452.t36 minus.t21 a_n2848_n452.t8 gnd.t96 sky130_fd_pr__nfet_01v8 ad=1.155 pd=7.33 as=1.155 ps=7.33 w=7 l=0.9
X238 gnd.t165 gnd.t163 gnd.t164 gnd.t132 sky130_fd_pr__nfet_01v8 ad=2.73 pd=14.78 as=0 ps=0 w=7 l=1
X239 vdd.t165 CSoutput.t158 output.t10 gnd.t82 sky130_fd_pr__nfet_01v8_lvt ad=0.825 pd=5.33 as=0.825 ps=5.33 w=5 l=1
X240 vdd.t64 a_n6972_8799.t99 CSoutput.t53 vdd.t50 sky130_fd_pr__pfet_01v8_lvt ad=1.32 pd=8.33 as=1.32 ps=8.33 w=8 l=0.5
X241 vdd.t63 a_n6972_8799.t100 CSoutput.t72 vdd.t19 sky130_fd_pr__pfet_01v8_lvt ad=1.32 pd=8.33 as=1.32 ps=8.33 w=8 l=0.5
X242 a_n3106_n452.t38 minus.t22 a_n2848_n452.t10 gnd.t110 sky130_fd_pr__nfet_01v8 ad=1.155 pd=7.33 as=1.155 ps=7.33 w=7 l=0.9
X243 gnd.t162 gnd.t160 gnd.t161 gnd.t132 sky130_fd_pr__nfet_01v8 ad=2.73 pd=14.78 as=0 ps=0 w=7 l=1
X244 output.t1 outputibias.t10 gnd.t22 gnd.t21 sky130_fd_pr__nfet_01v8 ad=2.34 pd=12.78 as=2.34 ps=12.78 w=6 l=2
X245 diffpairibias.t5 diffpairibias.t4 gnd.t276 gnd.t275 sky130_fd_pr__nfet_01v8 ad=2.73 pd=14.78 as=2.73 ps=14.78 w=7 l=1
X246 vdd.t205 vdd.t202 vdd.t204 vdd.t203 sky130_fd_pr__pfet_01v8_lvt ad=3.51 pd=18.78 as=0 ps=0 w=9 l=0.5
X247 CSoutput.t9 a_n6972_8799.t101 vdd.t62 vdd.t42 sky130_fd_pr__pfet_01v8_lvt ad=1.32 pd=8.33 as=1.32 ps=8.33 w=8 l=0.5