* NGSPICE file created from opamp.ext - technology: sky130A

.subckt opamp output vdd plus minus commonsourceibias outputibias diffpairibias gnd CSoutput
Cload output gnd 0.0p
X0 CSoutput.t125 commonsourceibias.t48 gnd.t321 gnd.t270 sky130_fd_pr__nfet_01v8 ad=1.155 pd=7.33 as=1.155 ps=7.33 w=7 l=1
X1 vdd.t124 vdd.t122 vdd.t123 vdd.t110 sky130_fd_pr__pfet_01v8_lvt ad=3.12 pd=16.78 as=0 ps=0 w=8 l=0.5
X2 vdd.t206 a_n6308_8799.t36 CSoutput.t52 vdd.t31 sky130_fd_pr__pfet_01v8_lvt ad=1.32 pd=8.33 as=1.32 ps=8.33 w=8 l=0.5
X3 a_n1986_8322.t23 a_n2848_n452.t48 vdd.t137 vdd.t136 sky130_fd_pr__pfet_01v8_lvt ad=1.485 pd=9.33 as=1.485 ps=9.33 w=9 l=0.5
X4 a_n1808_13878.t11 a_n2848_n452.t20 a_n2848_n452.t21 vdd.t159 sky130_fd_pr__pfet_01v8_lvt ad=1.485 pd=9.33 as=3.51 ps=18.78 w=9 l=0.5
X5 CSoutput.t124 commonsourceibias.t49 gnd.t320 gnd.t202 sky130_fd_pr__nfet_01v8 ad=1.155 pd=7.33 as=1.155 ps=7.33 w=7 l=1
X6 a_n6308_8799.t3 plus.t5 a_n3106_n452.t26 gnd.t6 sky130_fd_pr__nfet_01v8 ad=1.155 pd=7.33 as=1.155 ps=7.33 w=7 l=0.9
X7 gnd.t319 commonsourceibias.t50 CSoutput.t123 gnd.t263 sky130_fd_pr__nfet_01v8 ad=1.155 pd=7.33 as=1.155 ps=7.33 w=7 l=1
X8 CSoutput.t122 commonsourceibias.t51 gnd.t318 gnd.t243 sky130_fd_pr__nfet_01v8 ad=1.155 pd=7.33 as=1.155 ps=7.33 w=7 l=1
X9 a_n3106_n452.t25 plus.t6 a_n6308_8799.t22 gnd.t1 sky130_fd_pr__nfet_01v8 ad=1.155 pd=7.33 as=1.155 ps=7.33 w=7 l=0.9
X10 a_n2848_n452.t9 a_n2848_n452.t8 a_n1808_13878.t10 vdd.t185 sky130_fd_pr__pfet_01v8_lvt ad=1.485 pd=9.33 as=1.485 ps=9.33 w=9 l=0.5
X11 a_n1808_13878.t9 a_n2848_n452.t4 a_n2848_n452.t5 vdd.t156 sky130_fd_pr__pfet_01v8_lvt ad=1.485 pd=9.33 as=1.485 ps=9.33 w=9 l=0.5
X12 vdd.t121 vdd.t119 vdd.t120 vdd.t93 sky130_fd_pr__pfet_01v8_lvt ad=3.51 pd=18.78 as=0 ps=0 w=9 l=0.5
X13 CSoutput.t53 a_n6308_8799.t37 vdd.t207 vdd.t43 sky130_fd_pr__pfet_01v8_lvt ad=1.32 pd=8.33 as=1.32 ps=8.33 w=8 l=0.5
X14 a_n1808_13878.t19 a_n2848_n452.t49 vdd.t139 vdd.t138 sky130_fd_pr__pfet_01v8_lvt ad=1.485 pd=9.33 as=1.485 ps=9.33 w=9 l=0.5
X15 vdd.t118 vdd.t116 vdd.t117 vdd.t110 sky130_fd_pr__pfet_01v8_lvt ad=3.12 pd=16.78 as=0 ps=0 w=8 l=0.5
X16 vdd.t115 vdd.t113 vdd.t114 vdd.t61 sky130_fd_pr__pfet_01v8_lvt ad=3.12 pd=16.78 as=0 ps=0 w=8 l=0.5
X17 output.t19 outputibias.t8 gnd.t50 gnd.t49 sky130_fd_pr__nfet_01v8 ad=2.34 pd=12.78 as=2.34 ps=12.78 w=6 l=2
X18 CSoutput.t24 a_n6308_8799.t38 vdd.t163 vdd.t143 sky130_fd_pr__pfet_01v8_lvt ad=1.32 pd=8.33 as=1.32 ps=8.33 w=8 l=0.5
X19 CSoutput.t25 a_n6308_8799.t39 vdd.t164 vdd.t37 sky130_fd_pr__pfet_01v8_lvt ad=1.32 pd=8.33 as=1.32 ps=8.33 w=8 l=0.5
X20 gnd.t317 commonsourceibias.t52 CSoutput.t121 gnd.t224 sky130_fd_pr__nfet_01v8 ad=2.73 pd=14.78 as=1.155 ps=7.33 w=7 l=1
X21 CSoutput.t120 commonsourceibias.t53 gnd.t316 gnd.t261 sky130_fd_pr__nfet_01v8 ad=1.155 pd=7.33 as=1.155 ps=7.33 w=7 l=1
X22 gnd.t315 commonsourceibias.t54 CSoutput.t119 gnd.t213 sky130_fd_pr__nfet_01v8 ad=2.73 pd=14.78 as=1.155 ps=7.33 w=7 l=1
X23 CSoutput.t118 commonsourceibias.t55 gnd.t314 gnd.t261 sky130_fd_pr__nfet_01v8 ad=1.155 pd=7.33 as=1.155 ps=7.33 w=7 l=1
X24 gnd.t201 gnd.t198 gnd.t200 gnd.t199 sky130_fd_pr__nfet_01v8 ad=2.34 pd=12.78 as=0 ps=0 w=6 l=2
X25 CSoutput.t117 commonsourceibias.t56 gnd.t313 gnd.t276 sky130_fd_pr__nfet_01v8 ad=1.155 pd=7.33 as=1.155 ps=7.33 w=7 l=1
X26 a_n1986_8322.t15 a_n2848_n452.t50 a_n6308_8799.t32 vdd.t135 sky130_fd_pr__pfet_01v8_lvt ad=1.485 pd=9.33 as=1.485 ps=9.33 w=9 l=0.5
X27 CSoutput.t116 commonsourceibias.t57 gnd.t312 gnd.t202 sky130_fd_pr__nfet_01v8 ad=1.155 pd=7.33 as=1.155 ps=7.33 w=7 l=1
X28 a_n2848_n452.t39 minus.t5 a_n3106_n452.t46 gnd.t80 sky130_fd_pr__nfet_01v8 ad=1.155 pd=7.33 as=1.155 ps=7.33 w=7 l=0.9
X29 a_n6308_8799.t9 plus.t7 a_n3106_n452.t24 gnd.t31 sky130_fd_pr__nfet_01v8 ad=1.155 pd=7.33 as=1.155 ps=7.33 w=7 l=0.9
X30 plus.t4 gnd.t195 gnd.t197 gnd.t196 sky130_fd_pr__nfet_01v8 ad=0.165 pd=1.33 as=0.165 ps=1.33 w=1 l=0.5
X31 a_n2848_n452.t32 minus.t6 a_n3106_n452.t37 gnd.t66 sky130_fd_pr__nfet_01v8 ad=1.155 pd=7.33 as=1.155 ps=7.33 w=7 l=0.9
X32 gnd.t311 commonsourceibias.t58 CSoutput.t115 gnd.t254 sky130_fd_pr__nfet_01v8 ad=1.155 pd=7.33 as=1.155 ps=7.33 w=7 l=1
X33 CSoutput.t114 commonsourceibias.t59 gnd.t310 gnd.t232 sky130_fd_pr__nfet_01v8 ad=1.155 pd=7.33 as=1.155 ps=7.33 w=7 l=1
X34 CSoutput.t113 commonsourceibias.t60 gnd.t309 gnd.t270 sky130_fd_pr__nfet_01v8 ad=1.155 pd=7.33 as=1.155 ps=7.33 w=7 l=1
X35 gnd.t194 gnd.t192 gnd.t193 gnd.t124 sky130_fd_pr__nfet_01v8 ad=2.73 pd=14.78 as=0 ps=0 w=7 l=1
X36 CSoutput.t144 a_n1986_8322.t0 sky130_fd_pr__cap_mim_m3_1 l=12 w=12
X37 CSoutput.t142 a_n6308_8799.t40 vdd.t230 vdd.t29 sky130_fd_pr__pfet_01v8_lvt ad=1.32 pd=8.33 as=1.32 ps=8.33 w=8 l=0.5
X38 vdd.t231 a_n6308_8799.t41 CSoutput.t143 vdd.t35 sky130_fd_pr__pfet_01v8_lvt ad=1.32 pd=8.33 as=1.32 ps=8.33 w=8 l=0.5
X39 a_n3106_n452.t23 plus.t8 a_n6308_8799.t10 gnd.t32 sky130_fd_pr__nfet_01v8 ad=1.155 pd=7.33 as=1.155 ps=7.33 w=7 l=0.9
X40 CSoutput.t112 commonsourceibias.t61 gnd.t273 gnd.t250 sky130_fd_pr__nfet_01v8 ad=1.155 pd=7.33 as=1.155 ps=7.33 w=7 l=1
X41 a_n6308_8799.t33 a_n2848_n452.t51 a_n1986_8322.t14 vdd.t159 sky130_fd_pr__pfet_01v8_lvt ad=1.485 pd=9.33 as=3.51 ps=18.78 w=9 l=0.5
X42 CSoutput.t20 a_n6308_8799.t42 vdd.t154 vdd.t153 sky130_fd_pr__pfet_01v8_lvt ad=1.32 pd=8.33 as=3.12 ps=16.78 w=8 l=0.5
X43 vdd.t155 a_n6308_8799.t43 CSoutput.t21 vdd.t39 sky130_fd_pr__pfet_01v8_lvt ad=1.32 pd=8.33 as=1.32 ps=8.33 w=8 l=0.5
X44 a_n3106_n452.t45 minus.t7 a_n2848_n452.t38 gnd.t65 sky130_fd_pr__nfet_01v8 ad=1.155 pd=7.33 as=1.155 ps=7.33 w=7 l=0.9
X45 gnd.t295 commonsourceibias.t62 CSoutput.t111 gnd.t230 sky130_fd_pr__nfet_01v8 ad=1.155 pd=7.33 as=1.155 ps=7.33 w=7 l=1
X46 a_n3106_n452.t40 diffpairibias.t16 gnd.t70 gnd.t69 sky130_fd_pr__nfet_01v8 ad=2.73 pd=14.78 as=2.73 ps=14.78 w=7 l=1
X47 vdd.t112 vdd.t109 vdd.t111 vdd.t110 sky130_fd_pr__pfet_01v8_lvt ad=3.12 pd=16.78 as=0 ps=0 w=8 l=0.5
X48 CSoutput.t110 commonsourceibias.t63 gnd.t308 gnd.t217 sky130_fd_pr__nfet_01v8 ad=1.155 pd=7.33 as=2.73 ps=14.78 w=7 l=1
X49 gnd.t297 commonsourceibias.t44 commonsourceibias.t45 gnd.t227 sky130_fd_pr__nfet_01v8 ad=1.155 pd=7.33 as=1.155 ps=7.33 w=7 l=1
X50 gnd.t191 gnd.t188 gnd.t190 gnd.t189 sky130_fd_pr__nfet_01v8 ad=2.34 pd=12.78 as=0 ps=0 w=6 l=2
X51 output.t15 CSoutput.t145 vdd.t13 gnd.t36 sky130_fd_pr__nfet_01v8_lvt ad=0.825 pd=5.33 as=0.825 ps=5.33 w=5 l=1
X52 CSoutput.t109 commonsourceibias.t64 gnd.t307 gnd.t250 sky130_fd_pr__nfet_01v8 ad=1.155 pd=7.33 as=1.155 ps=7.33 w=7 l=1
X53 CSoutput.t8 a_n6308_8799.t44 vdd.t42 vdd.t41 sky130_fd_pr__pfet_01v8_lvt ad=1.32 pd=8.33 as=1.32 ps=8.33 w=8 l=0.5
X54 CSoutput.t9 a_n6308_8799.t45 vdd.t44 vdd.t43 sky130_fd_pr__pfet_01v8_lvt ad=1.32 pd=8.33 as=1.32 ps=8.33 w=8 l=0.5
X55 vdd.t108 vdd.t106 vdd.t107 vdd.t50 sky130_fd_pr__pfet_01v8_lvt ad=3.12 pd=16.78 as=0 ps=0 w=8 l=0.5
X56 CSoutput.t108 commonsourceibias.t65 gnd.t306 gnd.t239 sky130_fd_pr__nfet_01v8 ad=1.155 pd=7.33 as=1.155 ps=7.33 w=7 l=1
X57 gnd.t187 gnd.t185 gnd.t186 gnd.t120 sky130_fd_pr__nfet_01v8 ad=2.73 pd=14.78 as=0 ps=0 w=7 l=0.9
X58 outputibias.t7 outputibias.t6 gnd.t48 gnd.t47 sky130_fd_pr__nfet_01v8 ad=2.34 pd=12.78 as=2.34 ps=12.78 w=6 l=2
X59 gnd.t305 commonsourceibias.t66 CSoutput.t107 gnd.t263 sky130_fd_pr__nfet_01v8 ad=1.155 pd=7.33 as=1.155 ps=7.33 w=7 l=1
X60 output.t14 CSoutput.t146 vdd.t9 gnd.t37 sky130_fd_pr__nfet_01v8_lvt ad=0.825 pd=5.33 as=0.825 ps=5.33 w=5 l=1
X61 CSoutput.t6 a_n6308_8799.t46 vdd.t38 vdd.t37 sky130_fd_pr__pfet_01v8_lvt ad=1.32 pd=8.33 as=1.32 ps=8.33 w=8 l=0.5
X62 CSoutput.t106 commonsourceibias.t67 gnd.t304 gnd.t239 sky130_fd_pr__nfet_01v8 ad=1.155 pd=7.33 as=1.155 ps=7.33 w=7 l=1
X63 a_n3106_n452.t22 plus.t9 a_n6308_8799.t28 gnd.t30 sky130_fd_pr__nfet_01v8 ad=1.155 pd=7.33 as=1.155 ps=7.33 w=7 l=0.9
X64 gnd.t184 gnd.t182 gnd.t183 gnd.t124 sky130_fd_pr__nfet_01v8 ad=2.73 pd=14.78 as=0 ps=0 w=7 l=1
X65 CSoutput.t105 commonsourceibias.t68 gnd.t303 gnd.t261 sky130_fd_pr__nfet_01v8 ad=1.155 pd=7.33 as=1.155 ps=7.33 w=7 l=1
X66 gnd.t302 commonsourceibias.t20 commonsourceibias.t21 gnd.t204 sky130_fd_pr__nfet_01v8 ad=1.155 pd=7.33 as=1.155 ps=7.33 w=7 l=1
X67 gnd.t181 gnd.t179 gnd.t180 gnd.t96 sky130_fd_pr__nfet_01v8 ad=2.73 pd=14.78 as=0 ps=0 w=7 l=1
X68 a_n1808_13878.t8 a_n2848_n452.t14 a_n2848_n452.t15 vdd.t24 sky130_fd_pr__pfet_01v8_lvt ad=1.485 pd=9.33 as=3.51 ps=18.78 w=9 l=0.5
X69 vdd.t40 a_n6308_8799.t47 CSoutput.t7 vdd.t39 sky130_fd_pr__pfet_01v8_lvt ad=1.32 pd=8.33 as=1.32 ps=8.33 w=8 l=0.5
X70 a_n3106_n452.t21 plus.t10 a_n6308_8799.t23 gnd.t64 sky130_fd_pr__nfet_01v8 ad=1.155 pd=7.33 as=1.155 ps=7.33 w=7 l=0.9
X71 a_n3106_n452.t44 minus.t8 a_n2848_n452.t37 gnd.t79 sky130_fd_pr__nfet_01v8 ad=2.73 pd=14.78 as=1.155 ps=7.33 w=7 l=0.9
X72 diffpairibias.t15 diffpairibias.t14 gnd.t72 gnd.t71 sky130_fd_pr__nfet_01v8 ad=2.73 pd=14.78 as=2.73 ps=14.78 w=7 l=1
X73 a_n2848_n452.t19 a_n2848_n452.t18 a_n1808_13878.t7 vdd.t0 sky130_fd_pr__pfet_01v8_lvt ad=1.485 pd=9.33 as=1.485 ps=9.33 w=9 l=0.5
X74 CSoutput.t14 a_n6308_8799.t48 vdd.t129 vdd.t128 sky130_fd_pr__pfet_01v8_lvt ad=1.32 pd=8.33 as=1.32 ps=8.33 w=8 l=0.5
X75 CSoutput.t104 commonsourceibias.t69 gnd.t301 gnd.t248 sky130_fd_pr__nfet_01v8 ad=1.155 pd=7.33 as=2.73 ps=14.78 w=7 l=1
X76 CSoutput.t103 commonsourceibias.t70 gnd.t300 gnd.t217 sky130_fd_pr__nfet_01v8 ad=1.155 pd=7.33 as=2.73 ps=14.78 w=7 l=1
X77 vdd.t105 vdd.t103 vdd.t104 vdd.t78 sky130_fd_pr__pfet_01v8_lvt ad=3.51 pd=18.78 as=0 ps=0 w=9 l=0.5
X78 gnd.t299 commonsourceibias.t71 CSoutput.t102 gnd.t237 sky130_fd_pr__nfet_01v8 ad=1.155 pd=7.33 as=1.155 ps=7.33 w=7 l=1
X79 gnd.t298 commonsourceibias.t72 CSoutput.t101 gnd.t211 sky130_fd_pr__nfet_01v8 ad=1.155 pd=7.33 as=1.155 ps=7.33 w=7 l=1
X80 CSoutput.t100 commonsourceibias.t73 gnd.t296 gnd.t248 sky130_fd_pr__nfet_01v8 ad=1.155 pd=7.33 as=2.73 ps=14.78 w=7 l=1
X81 diffpairibias.t13 diffpairibias.t12 gnd.t13 gnd.t12 sky130_fd_pr__nfet_01v8 ad=2.73 pd=14.78 as=2.73 ps=14.78 w=7 l=1
X82 gnd.t294 commonsourceibias.t42 commonsourceibias.t43 gnd.t234 sky130_fd_pr__nfet_01v8 ad=1.155 pd=7.33 as=1.155 ps=7.33 w=7 l=1
X83 CSoutput.t99 commonsourceibias.t74 gnd.t293 gnd.t222 sky130_fd_pr__nfet_01v8 ad=1.155 pd=7.33 as=1.155 ps=7.33 w=7 l=1
X84 gnd.t274 commonsourceibias.t75 CSoutput.t98 gnd.t234 sky130_fd_pr__nfet_01v8 ad=1.155 pd=7.33 as=1.155 ps=7.33 w=7 l=1
X85 CSoutput.t97 commonsourceibias.t76 gnd.t292 gnd.t276 sky130_fd_pr__nfet_01v8 ad=1.155 pd=7.33 as=1.155 ps=7.33 w=7 l=1
X86 vdd.t130 a_n6308_8799.t49 CSoutput.t15 vdd.t39 sky130_fd_pr__pfet_01v8_lvt ad=1.32 pd=8.33 as=1.32 ps=8.33 w=8 l=0.5
X87 gnd.t291 commonsourceibias.t77 CSoutput.t96 gnd.t254 sky130_fd_pr__nfet_01v8 ad=1.155 pd=7.33 as=1.155 ps=7.33 w=7 l=1
X88 output.t13 CSoutput.t147 vdd.t7 gnd.t38 sky130_fd_pr__nfet_01v8_lvt ad=0.825 pd=5.33 as=0.825 ps=5.33 w=5 l=1
X89 vdd.t177 a_n6308_8799.t50 CSoutput.t30 vdd.t45 sky130_fd_pr__pfet_01v8_lvt ad=1.32 pd=8.33 as=1.32 ps=8.33 w=8 l=0.5
X90 CSoutput.t31 a_n6308_8799.t51 vdd.t178 vdd.t153 sky130_fd_pr__pfet_01v8_lvt ad=1.32 pd=8.33 as=3.12 ps=16.78 w=8 l=0.5
X91 a_n3106_n452.t43 minus.t9 a_n2848_n452.t36 gnd.t78 sky130_fd_pr__nfet_01v8 ad=1.155 pd=7.33 as=1.155 ps=7.33 w=7 l=0.9
X92 a_n3106_n452.t20 plus.t11 a_n6308_8799.t1 gnd.t3 sky130_fd_pr__nfet_01v8 ad=2.73 pd=14.78 as=1.155 ps=7.33 w=7 l=0.9
X93 vdd.t183 a_n6308_8799.t52 CSoutput.t36 vdd.t145 sky130_fd_pr__pfet_01v8_lvt ad=1.32 pd=8.33 as=1.32 ps=8.33 w=8 l=0.5
X94 a_n6308_8799.t4 plus.t12 a_n3106_n452.t19 gnd.t7 sky130_fd_pr__nfet_01v8 ad=1.155 pd=7.33 as=1.155 ps=7.33 w=7 l=0.9
X95 gnd.t290 commonsourceibias.t78 CSoutput.t95 gnd.t234 sky130_fd_pr__nfet_01v8 ad=1.155 pd=7.33 as=1.155 ps=7.33 w=7 l=1
X96 gnd.t178 gnd.t175 gnd.t177 gnd.t176 sky130_fd_pr__nfet_01v8_lvt ad=1.95 pd=10.78 as=0 ps=0 w=5 l=1
X97 CSoutput.t37 a_n6308_8799.t53 vdd.t184 vdd.t41 sky130_fd_pr__pfet_01v8_lvt ad=1.32 pd=8.33 as=1.32 ps=8.33 w=8 l=0.5
X98 CSoutput.t126 a_n6308_8799.t54 vdd.t208 vdd.t47 sky130_fd_pr__pfet_01v8_lvt ad=1.32 pd=8.33 as=1.32 ps=8.33 w=8 l=0.5
X99 vdd.t15 CSoutput.t148 output.t12 gnd.t25 sky130_fd_pr__nfet_01v8_lvt ad=0.825 pd=5.33 as=0.825 ps=5.33 w=5 l=1
X100 a_n3106_n452.t39 diffpairibias.t17 gnd.t68 gnd.t67 sky130_fd_pr__nfet_01v8 ad=2.73 pd=14.78 as=2.73 ps=14.78 w=7 l=1
X101 CSoutput.t127 a_n6308_8799.t55 vdd.t209 vdd.t47 sky130_fd_pr__pfet_01v8_lvt ad=1.32 pd=8.33 as=1.32 ps=8.33 w=8 l=0.5
X102 a_n3106_n452.t18 plus.t13 a_n6308_8799.t6 gnd.t16 sky130_fd_pr__nfet_01v8 ad=1.155 pd=7.33 as=1.155 ps=7.33 w=7 l=0.9
X103 gnd.t289 commonsourceibias.t79 CSoutput.t94 gnd.t230 sky130_fd_pr__nfet_01v8 ad=1.155 pd=7.33 as=1.155 ps=7.33 w=7 l=1
X104 gnd.t174 gnd.t172 gnd.t173 gnd.t100 sky130_fd_pr__nfet_01v8 ad=2.73 pd=14.78 as=0 ps=0 w=7 l=1
X105 vdd.t34 a_n6308_8799.t56 CSoutput.t4 vdd.t33 sky130_fd_pr__pfet_01v8_lvt ad=1.32 pd=8.33 as=1.32 ps=8.33 w=8 l=0.5
X106 gnd.t171 gnd.t169 gnd.t170 gnd.t100 sky130_fd_pr__nfet_01v8 ad=2.73 pd=14.78 as=0 ps=0 w=7 l=1
X107 a_n2848_n452.t11 a_n2848_n452.t10 a_n1808_13878.t6 vdd.t135 sky130_fd_pr__pfet_01v8_lvt ad=1.485 pd=9.33 as=1.485 ps=9.33 w=9 l=0.5
X108 a_n2848_n452.t23 a_n2848_n452.t22 a_n1808_13878.t5 vdd.t142 sky130_fd_pr__pfet_01v8_lvt ad=3.51 pd=18.78 as=1.485 ps=9.33 w=9 l=0.5
X109 vdd.t36 a_n6308_8799.t57 CSoutput.t5 vdd.t35 sky130_fd_pr__pfet_01v8_lvt ad=1.32 pd=8.33 as=1.32 ps=8.33 w=8 l=0.5
X110 vdd.t204 a_n6308_8799.t58 CSoutput.t50 vdd.t201 sky130_fd_pr__pfet_01v8_lvt ad=1.32 pd=8.33 as=1.32 ps=8.33 w=8 l=0.5
X111 a_n6308_8799.t12 a_n2848_n452.t52 a_n1986_8322.t13 vdd.t148 sky130_fd_pr__pfet_01v8_lvt ad=1.485 pd=9.33 as=1.485 ps=9.33 w=9 l=0.5
X112 gnd.t288 commonsourceibias.t80 CSoutput.t93 gnd.t209 sky130_fd_pr__nfet_01v8 ad=1.155 pd=7.33 as=1.155 ps=7.33 w=7 l=1
X113 vdd.t205 a_n6308_8799.t59 CSoutput.t51 vdd.t33 sky130_fd_pr__pfet_01v8_lvt ad=1.32 pd=8.33 as=1.32 ps=8.33 w=8 l=0.5
X114 a_n2848_n452.t40 minus.t10 a_n3106_n452.t47 gnd.t42 sky130_fd_pr__nfet_01v8 ad=1.155 pd=7.33 as=2.73 ps=14.78 w=7 l=0.9
X115 gnd.t287 commonsourceibias.t81 CSoutput.t92 gnd.t227 sky130_fd_pr__nfet_01v8 ad=1.155 pd=7.33 as=1.155 ps=7.33 w=7 l=1
X116 gnd.t286 commonsourceibias.t26 commonsourceibias.t27 gnd.t213 sky130_fd_pr__nfet_01v8 ad=2.73 pd=14.78 as=1.155 ps=7.33 w=7 l=1
X117 vdd.t228 a_n6308_8799.t60 CSoutput.t140 vdd.t161 sky130_fd_pr__pfet_01v8_lvt ad=3.12 pd=16.78 as=1.32 ps=8.33 w=8 l=0.5
X118 vdd.t12 CSoutput.t149 output.t11 gnd.t26 sky130_fd_pr__nfet_01v8_lvt ad=0.825 pd=5.33 as=0.825 ps=5.33 w=5 l=1
X119 CSoutput.t141 a_n6308_8799.t61 vdd.t229 vdd.t27 sky130_fd_pr__pfet_01v8_lvt ad=1.32 pd=8.33 as=1.32 ps=8.33 w=8 l=0.5
X120 output.t10 CSoutput.t150 vdd.t4 gnd.t27 sky130_fd_pr__nfet_01v8_lvt ad=0.825 pd=5.33 as=0.825 ps=5.33 w=5 l=1
X121 CSoutput.t151 a_n1986_8322.t1 sky130_fd_pr__cap_mim_m3_1 l=12 w=12
X122 output.t18 outputibias.t9 gnd.t52 gnd.t51 sky130_fd_pr__nfet_01v8 ad=2.34 pd=12.78 as=2.34 ps=12.78 w=6 l=2
X123 vdd.t46 a_n6308_8799.t62 CSoutput.t10 vdd.t45 sky130_fd_pr__pfet_01v8_lvt ad=1.32 pd=8.33 as=1.32 ps=8.33 w=8 l=0.5
X124 vdd.t102 vdd.t100 vdd.t101 vdd.t86 sky130_fd_pr__pfet_01v8_lvt ad=3.51 pd=18.78 as=0 ps=0 w=9 l=0.5
X125 vdd.t99 vdd.t96 vdd.t98 vdd.t97 sky130_fd_pr__pfet_01v8_lvt ad=3.51 pd=18.78 as=0 ps=0 w=9 l=0.5
X126 CSoutput.t91 commonsourceibias.t82 gnd.t285 gnd.t276 sky130_fd_pr__nfet_01v8 ad=1.155 pd=7.33 as=1.155 ps=7.33 w=7 l=1
X127 a_n3106_n452.t35 diffpairibias.t18 gnd.t61 gnd.t60 sky130_fd_pr__nfet_01v8 ad=2.73 pd=14.78 as=2.73 ps=14.78 w=7 l=1
X128 outputibias.t5 outputibias.t4 gnd.t46 gnd.t45 sky130_fd_pr__nfet_01v8 ad=2.34 pd=12.78 as=2.34 ps=12.78 w=6 l=2
X129 vdd.t95 vdd.t92 vdd.t94 vdd.t93 sky130_fd_pr__pfet_01v8_lvt ad=3.51 pd=18.78 as=0 ps=0 w=9 l=0.5
X130 gnd.t168 gnd.t166 minus.t4 gnd.t167 sky130_fd_pr__nfet_01v8 ad=0.39 pd=2.78 as=0.165 ps=1.33 w=1 l=0.5
X131 gnd.t165 gnd.t163 gnd.t164 gnd.t96 sky130_fd_pr__nfet_01v8 ad=2.73 pd=14.78 as=0 ps=0 w=7 l=1
X132 CSoutput.t90 commonsourceibias.t83 gnd.t284 gnd.t270 sky130_fd_pr__nfet_01v8 ad=1.155 pd=7.33 as=1.155 ps=7.33 w=7 l=1
X133 gnd.t162 gnd.t160 gnd.t161 gnd.t110 sky130_fd_pr__nfet_01v8 ad=2.73 pd=14.78 as=0 ps=0 w=7 l=0.9
X134 output.t9 CSoutput.t152 vdd.t5 gnd.t28 sky130_fd_pr__nfet_01v8_lvt ad=0.825 pd=5.33 as=0.825 ps=5.33 w=5 l=1
X135 vdd.t172 a_n2848_n452.t53 a_n1986_8322.t22 vdd.t171 sky130_fd_pr__pfet_01v8_lvt ad=1.485 pd=9.33 as=1.485 ps=9.33 w=9 l=0.5
X136 vdd.t91 vdd.t89 vdd.t90 vdd.t82 sky130_fd_pr__pfet_01v8_lvt ad=3.51 pd=18.78 as=0 ps=0 w=9 l=0.5
X137 CSoutput.t11 a_n6308_8799.t63 vdd.t48 vdd.t47 sky130_fd_pr__pfet_01v8_lvt ad=1.32 pd=8.33 as=1.32 ps=8.33 w=8 l=0.5
X138 a_n1986_8322.t21 a_n2848_n452.t54 vdd.t21 vdd.t20 sky130_fd_pr__pfet_01v8_lvt ad=1.485 pd=9.33 as=1.485 ps=9.33 w=9 l=0.5
X139 outputibias.t3 outputibias.t2 gnd.t24 gnd.t23 sky130_fd_pr__nfet_01v8 ad=2.34 pd=12.78 as=2.34 ps=12.78 w=6 l=2
X140 vdd.t214 a_n6308_8799.t64 CSoutput.t132 vdd.t33 sky130_fd_pr__pfet_01v8_lvt ad=1.32 pd=8.33 as=1.32 ps=8.33 w=8 l=0.5
X141 gnd.t159 gnd.t157 gnd.t158 gnd.t100 sky130_fd_pr__nfet_01v8 ad=2.73 pd=14.78 as=0 ps=0 w=7 l=1
X142 vdd.t23 a_n2848_n452.t55 a_n1808_13878.t18 vdd.t22 sky130_fd_pr__pfet_01v8_lvt ad=1.485 pd=9.33 as=1.485 ps=9.33 w=9 l=0.5
X143 gnd.t156 gnd.t154 plus.t3 gnd.t155 sky130_fd_pr__nfet_01v8 ad=0.39 pd=2.78 as=0.165 ps=1.33 w=1 l=0.5
X144 a_n2848_n452.t31 minus.t11 a_n3106_n452.t36 gnd.t63 sky130_fd_pr__nfet_01v8 ad=1.155 pd=7.33 as=1.155 ps=7.33 w=7 l=0.9
X145 a_n6308_8799.t21 plus.t14 a_n3106_n452.t17 gnd.t2 sky130_fd_pr__nfet_01v8 ad=1.155 pd=7.33 as=2.73 ps=14.78 w=7 l=0.9
X146 vdd.t88 vdd.t85 vdd.t87 vdd.t86 sky130_fd_pr__pfet_01v8_lvt ad=3.51 pd=18.78 as=0 ps=0 w=9 l=0.5
X147 a_n6308_8799.t18 plus.t15 a_n3106_n452.t16 gnd.t62 sky130_fd_pr__nfet_01v8 ad=1.155 pd=7.33 as=1.155 ps=7.33 w=7 l=0.9
X148 a_n2848_n452.t45 minus.t12 a_n3106_n452.t52 gnd.t81 sky130_fd_pr__nfet_01v8 ad=1.155 pd=7.33 as=1.155 ps=7.33 w=7 l=0.9
X149 diffpairibias.t11 diffpairibias.t10 gnd.t75 gnd.t74 sky130_fd_pr__nfet_01v8 ad=2.73 pd=14.78 as=2.73 ps=14.78 w=7 l=1
X150 vdd.t84 vdd.t81 vdd.t83 vdd.t82 sky130_fd_pr__pfet_01v8_lvt ad=3.51 pd=18.78 as=0 ps=0 w=9 l=0.5
X151 vdd.t215 a_n6308_8799.t65 CSoutput.t133 vdd.t35 sky130_fd_pr__pfet_01v8_lvt ad=1.32 pd=8.33 as=1.32 ps=8.33 w=8 l=0.5
X152 CSoutput.t89 commonsourceibias.t84 gnd.t282 gnd.t243 sky130_fd_pr__nfet_01v8 ad=1.155 pd=7.33 as=1.155 ps=7.33 w=7 l=1
X153 gnd.t283 commonsourceibias.t85 CSoutput.t88 gnd.t263 sky130_fd_pr__nfet_01v8 ad=1.155 pd=7.33 as=1.155 ps=7.33 w=7 l=1
X154 commonsourceibias.t25 commonsourceibias.t24 gnd.t281 gnd.t202 sky130_fd_pr__nfet_01v8 ad=1.155 pd=7.33 as=1.155 ps=7.33 w=7 l=1
X155 a_n6308_8799.t8 a_n2848_n452.t56 a_n1986_8322.t12 vdd.t165 sky130_fd_pr__pfet_01v8_lvt ad=1.485 pd=9.33 as=1.485 ps=9.33 w=9 l=0.5
X156 a_n1986_8322.t20 a_n2848_n452.t57 vdd.t167 vdd.t166 sky130_fd_pr__pfet_01v8_lvt ad=3.51 pd=18.78 as=1.485 ps=9.33 w=9 l=0.5
X157 vdd.t80 vdd.t77 vdd.t79 vdd.t78 sky130_fd_pr__pfet_01v8_lvt ad=3.51 pd=18.78 as=0 ps=0 w=9 l=0.5
X158 vdd.t2 CSoutput.t153 output.t8 gnd.t29 sky130_fd_pr__nfet_01v8_lvt ad=0.825 pd=5.33 as=0.825 ps=5.33 w=5 l=1
X159 vdd.t222 a_n6308_8799.t66 CSoutput.t138 vdd.t161 sky130_fd_pr__pfet_01v8_lvt ad=3.12 pd=16.78 as=1.32 ps=8.33 w=8 l=0.5
X160 a_n2848_n452.t25 a_n2848_n452.t24 a_n1808_13878.t4 vdd.t19 sky130_fd_pr__pfet_01v8_lvt ad=1.485 pd=9.33 as=1.485 ps=9.33 w=9 l=0.5
X161 a_n3106_n452.t51 minus.t13 a_n2848_n452.t44 gnd.t43 sky130_fd_pr__nfet_01v8 ad=1.155 pd=7.33 as=1.155 ps=7.33 w=7 l=0.9
X162 CSoutput.t154 a_n1986_8322.t3 sky130_fd_pr__cap_mim_m3_1 l=12 w=12
X163 CSoutput.t139 a_n6308_8799.t67 vdd.t223 vdd.t27 sky130_fd_pr__pfet_01v8_lvt ad=1.32 pd=8.33 as=1.32 ps=8.33 w=8 l=0.5
X164 a_n6308_8799.t7 a_n2848_n452.t58 a_n1986_8322.t11 vdd.t156 sky130_fd_pr__pfet_01v8_lvt ad=1.485 pd=9.33 as=1.485 ps=9.33 w=9 l=0.5
X165 CSoutput.t87 commonsourceibias.t86 gnd.t280 gnd.t239 sky130_fd_pr__nfet_01v8 ad=1.155 pd=7.33 as=1.155 ps=7.33 w=7 l=1
X166 CSoutput.t155 a_n1986_8322.t2 sky130_fd_pr__cap_mim_m3_1 l=12 w=12
X167 a_n1808_13878.t3 a_n2848_n452.t2 a_n2848_n452.t3 vdd.t148 sky130_fd_pr__pfet_01v8_lvt ad=1.485 pd=9.33 as=1.485 ps=9.33 w=9 l=0.5
X168 gnd.t279 commonsourceibias.t87 CSoutput.t86 gnd.t254 sky130_fd_pr__nfet_01v8 ad=1.155 pd=7.33 as=1.155 ps=7.33 w=7 l=1
X169 gnd.t278 commonsourceibias.t88 CSoutput.t85 gnd.t237 sky130_fd_pr__nfet_01v8 ad=1.155 pd=7.33 as=1.155 ps=7.33 w=7 l=1
X170 a_n3106_n452.t15 plus.t16 a_n6308_8799.t0 gnd.t0 sky130_fd_pr__nfet_01v8 ad=1.155 pd=7.33 as=1.155 ps=7.33 w=7 l=0.9
X171 a_n2848_n452.t43 minus.t14 a_n3106_n452.t50 gnd.t6 sky130_fd_pr__nfet_01v8 ad=1.155 pd=7.33 as=1.155 ps=7.33 w=7 l=0.9
X172 commonsourceibias.t23 commonsourceibias.t22 gnd.t277 gnd.t276 sky130_fd_pr__nfet_01v8 ad=1.155 pd=7.33 as=1.155 ps=7.33 w=7 l=1
X173 gnd.t275 commonsourceibias.t89 CSoutput.t84 gnd.t224 sky130_fd_pr__nfet_01v8 ad=2.73 pd=14.78 as=1.155 ps=7.33 w=7 l=1
X174 vdd.t158 a_n2848_n452.t59 a_n1986_8322.t19 vdd.t157 sky130_fd_pr__pfet_01v8_lvt ad=1.485 pd=9.33 as=3.51 ps=18.78 w=9 l=0.5
X175 CSoutput.t83 commonsourceibias.t90 gnd.t272 gnd.t232 sky130_fd_pr__nfet_01v8 ad=1.155 pd=7.33 as=1.155 ps=7.33 w=7 l=1
X176 outputibias.t1 outputibias.t0 gnd.t22 gnd.t21 sky130_fd_pr__nfet_01v8 ad=2.34 pd=12.78 as=2.34 ps=12.78 w=6 l=2
X177 gnd.t153 gnd.t150 gnd.t152 gnd.t151 sky130_fd_pr__nfet_01v8 ad=2.73 pd=14.78 as=0 ps=0 w=7 l=1
X178 a_n3106_n452.t32 diffpairibias.t19 gnd.t34 gnd.t33 sky130_fd_pr__nfet_01v8 ad=2.73 pd=14.78 as=2.73 ps=14.78 w=7 l=1
X179 CSoutput.t42 a_n6308_8799.t68 vdd.t194 vdd.t128 sky130_fd_pr__pfet_01v8_lvt ad=1.32 pd=8.33 as=1.32 ps=8.33 w=8 l=0.5
X180 a_n6308_8799.t25 plus.t17 a_n3106_n452.t14 gnd.t73 sky130_fd_pr__nfet_01v8 ad=1.155 pd=7.33 as=1.155 ps=7.33 w=7 l=0.9
X181 a_n3106_n452.t27 diffpairibias.t20 gnd.t18 gnd.t17 sky130_fd_pr__nfet_01v8 ad=2.73 pd=14.78 as=2.73 ps=14.78 w=7 l=1
X182 output.t17 outputibias.t10 gnd.t323 gnd.t322 sky130_fd_pr__nfet_01v8 ad=2.34 pd=12.78 as=2.34 ps=12.78 w=6 l=2
X183 commonsourceibias.t7 commonsourceibias.t6 gnd.t271 gnd.t270 sky130_fd_pr__nfet_01v8 ad=1.155 pd=7.33 as=1.155 ps=7.33 w=7 l=1
X184 vdd.t195 a_n6308_8799.t69 CSoutput.t43 vdd.t191 sky130_fd_pr__pfet_01v8_lvt ad=3.12 pd=16.78 as=1.32 ps=8.33 w=8 l=0.5
X185 gnd.t149 gnd.t147 gnd.t148 gnd.t124 sky130_fd_pr__nfet_01v8 ad=2.73 pd=14.78 as=0 ps=0 w=7 l=1
X186 gnd.t146 gnd.t143 gnd.t145 gnd.t144 sky130_fd_pr__nfet_01v8_lvt ad=1.95 pd=10.78 as=0 ps=0 w=5 l=1
X187 a_n6308_8799.t27 plus.t18 a_n3106_n452.t13 gnd.t66 sky130_fd_pr__nfet_01v8 ad=1.155 pd=7.33 as=1.155 ps=7.33 w=7 l=0.9
X188 CSoutput.t82 commonsourceibias.t91 gnd.t269 gnd.t243 sky130_fd_pr__nfet_01v8 ad=1.155 pd=7.33 as=1.155 ps=7.33 w=7 l=1
X189 CSoutput.t81 commonsourceibias.t92 gnd.t268 gnd.t222 sky130_fd_pr__nfet_01v8 ad=1.155 pd=7.33 as=1.155 ps=7.33 w=7 l=1
X190 vdd.t212 a_n6308_8799.t70 CSoutput.t130 vdd.t169 sky130_fd_pr__pfet_01v8_lvt ad=1.32 pd=8.33 as=1.32 ps=8.33 w=8 l=0.5
X191 output.t7 CSoutput.t156 vdd.t1 gnd.t57 sky130_fd_pr__nfet_01v8_lvt ad=0.825 pd=5.33 as=0.825 ps=5.33 w=5 l=1
X192 gnd.t142 gnd.t140 gnd.t141 gnd.t92 sky130_fd_pr__nfet_01v8 ad=2.73 pd=14.78 as=0 ps=0 w=7 l=1
X193 minus.t3 gnd.t137 gnd.t139 gnd.t138 sky130_fd_pr__nfet_01v8 ad=0.165 pd=1.33 as=0.165 ps=1.33 w=1 l=0.5
X194 commonsourceibias.t5 commonsourceibias.t4 gnd.t267 gnd.t250 sky130_fd_pr__nfet_01v8 ad=1.155 pd=7.33 as=1.155 ps=7.33 w=7 l=1
X195 diffpairibias.t9 diffpairibias.t8 gnd.t11 gnd.t10 sky130_fd_pr__nfet_01v8 ad=2.73 pd=14.78 as=2.73 ps=14.78 w=7 l=1
X196 CSoutput.t80 commonsourceibias.t93 gnd.t266 gnd.t232 sky130_fd_pr__nfet_01v8 ad=1.155 pd=7.33 as=1.155 ps=7.33 w=7 l=1
X197 CSoutput.t79 commonsourceibias.t94 gnd.t265 gnd.t207 sky130_fd_pr__nfet_01v8 ad=1.155 pd=7.33 as=1.155 ps=7.33 w=7 l=1
X198 a_n2848_n452.t42 minus.t15 a_n3106_n452.t49 gnd.t44 sky130_fd_pr__nfet_01v8 ad=1.155 pd=7.33 as=1.155 ps=7.33 w=7 l=0.9
X199 output.t6 CSoutput.t157 vdd.t14 gnd.t39 sky130_fd_pr__nfet_01v8_lvt ad=1.95 pd=10.78 as=0.825 ps=5.33 w=5 l=1
X200 CSoutput.t131 a_n6308_8799.t71 vdd.t213 vdd.t43 sky130_fd_pr__pfet_01v8_lvt ad=1.32 pd=8.33 as=1.32 ps=8.33 w=8 l=0.5
X201 a_n3106_n452.t12 plus.t19 a_n6308_8799.t24 gnd.t65 sky130_fd_pr__nfet_01v8 ad=1.155 pd=7.33 as=1.155 ps=7.33 w=7 l=0.9
X202 gnd.t264 commonsourceibias.t2 commonsourceibias.t3 gnd.t263 sky130_fd_pr__nfet_01v8 ad=1.155 pd=7.33 as=1.155 ps=7.33 w=7 l=1
X203 CSoutput.t136 a_n6308_8799.t72 vdd.t220 vdd.t188 sky130_fd_pr__pfet_01v8_lvt ad=1.32 pd=8.33 as=1.32 ps=8.33 w=8 l=0.5
X204 commonsourceibias.t1 commonsourceibias.t0 gnd.t262 gnd.t261 sky130_fd_pr__nfet_01v8 ad=1.155 pd=7.33 as=1.155 ps=7.33 w=7 l=1
X205 vdd.t76 vdd.t74 vdd.t75 vdd.t57 sky130_fd_pr__pfet_01v8_lvt ad=3.12 pd=16.78 as=0 ps=0 w=8 l=0.5
X206 a_n1808_13878.t17 a_n2848_n452.t60 vdd.t132 vdd.t131 sky130_fd_pr__pfet_01v8_lvt ad=1.485 pd=9.33 as=1.485 ps=9.33 w=9 l=0.5
X207 vdd.t134 a_n2848_n452.t61 a_n1808_13878.t16 vdd.t133 sky130_fd_pr__pfet_01v8_lvt ad=1.485 pd=9.33 as=1.485 ps=9.33 w=9 l=0.5
X208 gnd.t260 commonsourceibias.t95 CSoutput.t78 gnd.t215 sky130_fd_pr__nfet_01v8 ad=1.155 pd=7.33 as=1.155 ps=7.33 w=7 l=1
X209 commonsourceibias.t19 commonsourceibias.t18 gnd.t259 gnd.t217 sky130_fd_pr__nfet_01v8 ad=1.155 pd=7.33 as=2.73 ps=14.78 w=7 l=1
X210 a_n3106_n452.t48 minus.t16 a_n2848_n452.t41 gnd.t35 sky130_fd_pr__nfet_01v8 ad=1.155 pd=7.33 as=1.155 ps=7.33 w=7 l=0.9
X211 gnd.t258 commonsourceibias.t16 commonsourceibias.t17 gnd.t211 sky130_fd_pr__nfet_01v8 ad=1.155 pd=7.33 as=1.155 ps=7.33 w=7 l=1
X212 gnd.t136 gnd.t134 gnd.t135 gnd.t92 sky130_fd_pr__nfet_01v8 ad=2.73 pd=14.78 as=0 ps=0 w=7 l=1
X213 diffpairibias.t7 diffpairibias.t6 gnd.t77 gnd.t76 sky130_fd_pr__nfet_01v8 ad=2.73 pd=14.78 as=2.73 ps=14.78 w=7 l=1
X214 commonsourceibias.t15 commonsourceibias.t14 gnd.t257 gnd.t248 sky130_fd_pr__nfet_01v8 ad=1.155 pd=7.33 as=2.73 ps=14.78 w=7 l=1
X215 CSoutput.t137 a_n6308_8799.t73 vdd.t221 vdd.t128 sky130_fd_pr__pfet_01v8_lvt ad=1.32 pd=8.33 as=1.32 ps=8.33 w=8 l=0.5
X216 vdd.t192 a_n6308_8799.t74 CSoutput.t40 vdd.t191 sky130_fd_pr__pfet_01v8_lvt ad=3.12 pd=16.78 as=1.32 ps=8.33 w=8 l=0.5
X217 a_n3106_n452.t42 minus.t17 a_n2848_n452.t35 gnd.t64 sky130_fd_pr__nfet_01v8 ad=1.155 pd=7.33 as=1.155 ps=7.33 w=7 l=0.9
X218 a_n3106_n452.t11 plus.t20 a_n6308_8799.t35 gnd.t79 sky130_fd_pr__nfet_01v8 ad=2.73 pd=14.78 as=1.155 ps=7.33 w=7 l=0.9
X219 a_n1986_8322.t10 a_n2848_n452.t62 a_n6308_8799.t17 vdd.t185 sky130_fd_pr__pfet_01v8_lvt ad=1.485 pd=9.33 as=1.485 ps=9.33 w=9 l=0.5
X220 gnd.t256 commonsourceibias.t96 CSoutput.t77 gnd.t215 sky130_fd_pr__nfet_01v8 ad=1.155 pd=7.33 as=1.155 ps=7.33 w=7 l=1
X221 a_n3106_n452.t0 minus.t18 a_n2848_n452.t0 gnd.t1 sky130_fd_pr__nfet_01v8 ad=1.155 pd=7.33 as=1.155 ps=7.33 w=7 l=0.9
X222 vdd.t10 CSoutput.t158 output.t5 gnd.t40 sky130_fd_pr__nfet_01v8_lvt ad=0.825 pd=5.33 as=1.95 ps=10.78 w=5 l=1
X223 output.t16 outputibias.t11 gnd.t54 gnd.t53 sky130_fd_pr__nfet_01v8 ad=2.34 pd=12.78 as=2.34 ps=12.78 w=6 l=2
X224 vdd.t8 CSoutput.t159 output.t4 gnd.t41 sky130_fd_pr__nfet_01v8_lvt ad=0.825 pd=5.33 as=0.825 ps=5.33 w=5 l=1
X225 vdd.t193 a_n6308_8799.t75 CSoutput.t41 vdd.t45 sky130_fd_pr__pfet_01v8_lvt ad=1.32 pd=8.33 as=1.32 ps=8.33 w=8 l=0.5
X226 CSoutput.t34 a_n6308_8799.t76 vdd.t181 vdd.t151 sky130_fd_pr__pfet_01v8_lvt ad=1.32 pd=8.33 as=1.32 ps=8.33 w=8 l=0.5
X227 gnd.t255 commonsourceibias.t12 commonsourceibias.t13 gnd.t254 sky130_fd_pr__nfet_01v8 ad=1.155 pd=7.33 as=1.155 ps=7.33 w=7 l=1
X228 vdd.t182 a_n6308_8799.t77 CSoutput.t35 vdd.t169 sky130_fd_pr__pfet_01v8_lvt ad=1.32 pd=8.33 as=1.32 ps=8.33 w=8 l=0.5
X229 vdd.t187 a_n2848_n452.t63 a_n1986_8322.t18 vdd.t186 sky130_fd_pr__pfet_01v8_lvt ad=1.485 pd=9.33 as=3.51 ps=18.78 w=9 l=0.5
X230 a_n1808_13878.t15 a_n2848_n452.t64 vdd.t18 vdd.t17 sky130_fd_pr__pfet_01v8_lvt ad=3.51 pd=18.78 as=1.485 ps=9.33 w=9 l=0.5
X231 gnd.t133 gnd.t130 gnd.t132 gnd.t131 sky130_fd_pr__nfet_01v8 ad=2.73 pd=14.78 as=0 ps=0 w=7 l=1
X232 minus.t2 gnd.t127 gnd.t129 gnd.t128 sky130_fd_pr__nfet_01v8 ad=0.165 pd=1.33 as=0.165 ps=1.33 w=1 l=0.5
X233 a_n3106_n452.t2 diffpairibias.t21 gnd.t9 gnd.t8 sky130_fd_pr__nfet_01v8 ad=2.73 pd=14.78 as=2.73 ps=14.78 w=7 l=1
X234 vdd.t210 a_n6308_8799.t78 CSoutput.t128 vdd.t201 sky130_fd_pr__pfet_01v8_lvt ad=1.32 pd=8.33 as=1.32 ps=8.33 w=8 l=0.5
X235 vdd.t73 vdd.t71 vdd.t72 vdd.t61 sky130_fd_pr__pfet_01v8_lvt ad=3.12 pd=16.78 as=0 ps=0 w=8 l=0.5
X236 CSoutput.t129 a_n6308_8799.t79 vdd.t211 vdd.t188 sky130_fd_pr__pfet_01v8_lvt ad=1.32 pd=8.33 as=1.32 ps=8.33 w=8 l=0.5
X237 a_n6308_8799.t29 plus.t21 a_n3106_n452.t10 gnd.t80 sky130_fd_pr__nfet_01v8 ad=1.155 pd=7.33 as=1.155 ps=7.33 w=7 l=0.9
X238 a_n2848_n452.t30 minus.t19 a_n3106_n452.t33 gnd.t31 sky130_fd_pr__nfet_01v8 ad=1.155 pd=7.33 as=1.155 ps=7.33 w=7 l=0.9
X239 gnd.t253 commonsourceibias.t10 commonsourceibias.t11 gnd.t230 sky130_fd_pr__nfet_01v8 ad=1.155 pd=7.33 as=1.155 ps=7.33 w=7 l=1
X240 CSoutput.t2 a_n6308_8799.t80 vdd.t30 vdd.t29 sky130_fd_pr__pfet_01v8_lvt ad=1.32 pd=8.33 as=1.32 ps=8.33 w=8 l=0.5
X241 a_n3106_n452.t28 minus.t20 a_n2848_n452.t26 gnd.t3 sky130_fd_pr__nfet_01v8 ad=2.73 pd=14.78 as=1.155 ps=7.33 w=7 l=0.9
X242 CSoutput.t160 a_n1986_8322.t1 sky130_fd_pr__cap_mim_m3_1 l=12 w=12
X243 vdd.t70 vdd.t68 vdd.t69 vdd.t57 sky130_fd_pr__pfet_01v8_lvt ad=3.12 pd=16.78 as=0 ps=0 w=8 l=0.5
X244 a_n1986_8322.t9 a_n2848_n452.t65 a_n6308_8799.t2 vdd.t19 sky130_fd_pr__pfet_01v8_lvt ad=1.485 pd=9.33 as=1.485 ps=9.33 w=9 l=0.5
X245 vdd.t217 a_n2848_n452.t66 a_n1986_8322.t17 vdd.t216 sky130_fd_pr__pfet_01v8_lvt ad=1.485 pd=9.33 as=1.485 ps=9.33 w=9 l=0.5
X246 vdd.t32 a_n6308_8799.t81 CSoutput.t3 vdd.t31 sky130_fd_pr__pfet_01v8_lvt ad=1.32 pd=8.33 as=1.32 ps=8.33 w=8 l=0.5
X247 CSoutput.t38 a_n6308_8799.t82 vdd.t189 vdd.t188 sky130_fd_pr__pfet_01v8_lvt ad=1.32 pd=8.33 as=1.32 ps=8.33 w=8 l=0.5
X248 CSoutput.t39 a_n6308_8799.t83 vdd.t190 vdd.t149 sky130_fd_pr__pfet_01v8_lvt ad=1.32 pd=8.33 as=3.12 ps=16.78 w=8 l=0.5