* NGSPICE file created from opamp.ext - technology: sky130A

.subckt opamp output vdd plus minus commonsourceibias outputibias diffpairibias gnd CSoutput
Cload output gnd 0.0p
X0 vdd.t102 vdd.t100 vdd.t101 vdd.t47 sky130_fd_pr__pfet_01v8_lvt ad=2.34 pd=12.78 as=0 ps=0 w=6 l=1
X1 CSoutput.t71 commonsourceibias.t32 gnd.t108 gnd.t56 sky130_fd_pr__nfet_01v8 ad=0.99 pd=6.33 as=0.99 ps=6.33 w=6 l=2
X2 CSoutput.t34 a_n7677_7899.t20 vdd.t163 vdd.t118 sky130_fd_pr__pfet_01v8_lvt ad=1.155 pd=7.33 as=2.73 ps=14.78 w=7 l=1
X3 CSoutput.t35 a_n7677_7899.t21 vdd.t164 vdd.t147 sky130_fd_pr__pfet_01v8_lvt ad=1.155 pd=7.33 as=2.73 ps=14.78 w=7 l=1
X4 vdd.t212 a_n7677_7899.t22 CSoutput.t90 vdd.t23 sky130_fd_pr__pfet_01v8_lvt ad=1.155 pd=7.33 as=1.155 ps=7.33 w=7 l=1
X5 CSoutput.t70 commonsourceibias.t33 gnd.t107 gnd.t54 sky130_fd_pr__nfet_01v8 ad=0.99 pd=6.33 as=2.34 ps=12.78 w=6 l=2
X6 vdd.t99 vdd.t97 vdd.t98 vdd.t68 sky130_fd_pr__pfet_01v8_lvt ad=2.73 pd=14.78 as=0 ps=0 w=7 l=1
X7 a_n7677_7899.t14 plus.t5 a_n1455_n3628.t13 gnd.t217 sky130_fd_pr__nfet_01v8 ad=0.99 pd=6.33 as=2.34 ps=12.78 w=6 l=1
X8 vdd.t213 a_n7677_7899.t23 CSoutput.t91 vdd.t129 sky130_fd_pr__pfet_01v8_lvt ad=1.155 pd=7.33 as=1.155 ps=7.33 w=7 l=1
X9 a_n2511_10156.t19 a_n2686_12378.t25 a_n2686_12378.t26 vdd.t144 sky130_fd_pr__pfet_01v8_lvt ad=0.99 pd=6.33 as=0.99 ps=6.33 w=6 l=1
X10 CSoutput.t72 a_n7677_7899.t24 vdd.t183 vdd.t167 sky130_fd_pr__pfet_01v8_lvt ad=1.155 pd=7.33 as=1.155 ps=7.33 w=7 l=1
X11 a_n2686_8022.t12 a_n2686_12378.t32 a_n7677_7899.t9 vdd.t22 sky130_fd_pr__pfet_01v8_lvt ad=0.99 pd=6.33 as=0.99 ps=6.33 w=6 l=1
X12 output.t15 CSoutput.t92 vdd.t198 gnd.t222 sky130_fd_pr__nfet_01v8_lvt ad=0.825 pd=5.33 as=0.825 ps=5.33 w=5 l=1
X13 CSoutput.t73 a_n7677_7899.t25 vdd.t184 vdd.t110 sky130_fd_pr__pfet_01v8_lvt ad=1.155 pd=7.33 as=1.155 ps=7.33 w=7 l=1
X14 gnd.t106 commonsourceibias.t4 commonsourceibias.t5 gnd.t74 sky130_fd_pr__nfet_01v8 ad=0.99 pd=6.33 as=0.99 ps=6.33 w=6 l=2
X15 vdd.t192 a_n7677_7899.t26 CSoutput.t80 vdd.t116 sky130_fd_pr__pfet_01v8_lvt ad=1.155 pd=7.33 as=1.155 ps=7.33 w=7 l=1
X16 CSoutput.t69 commonsourceibias.t34 gnd.t104 gnd.t45 sky130_fd_pr__nfet_01v8 ad=0.99 pd=6.33 as=0.99 ps=6.33 w=6 l=2
X17 a_n2686_12378.t31 minus.t5 a_n1455_n3628.t19 gnd.t223 sky130_fd_pr__nfet_01v8 ad=0.99 pd=6.33 as=2.34 ps=12.78 w=6 l=1
X18 CSoutput.t81 a_n7677_7899.t27 vdd.t193 vdd.t186 sky130_fd_pr__pfet_01v8_lvt ad=1.155 pd=7.33 as=1.155 ps=7.33 w=7 l=1
X19 CSoutput.t93 a_n2686_8022.t0 sky130_fd_pr__cap_mim_m3_1 l=12 w=12
X20 output.t14 CSoutput.t94 vdd.t12 gnd.t10 sky130_fd_pr__nfet_01v8_lvt ad=1.95 pd=10.78 as=0.825 ps=5.33 w=5 l=1
X21 a_n2686_12378.t18 a_n2686_12378.t17 a_n2511_10156.t18 vdd.t155 sky130_fd_pr__pfet_01v8_lvt ad=0.99 pd=6.33 as=0.99 ps=6.33 w=6 l=1
X22 CSoutput.t86 a_n7677_7899.t28 vdd.t205 vdd.t186 sky130_fd_pr__pfet_01v8_lvt ad=1.155 pd=7.33 as=1.155 ps=7.33 w=7 l=1
X23 CSoutput.t68 commonsourceibias.t35 gnd.t105 gnd.t51 sky130_fd_pr__nfet_01v8 ad=0.99 pd=6.33 as=0.99 ps=6.33 w=6 l=2
X24 CSoutput.t67 commonsourceibias.t36 gnd.t103 gnd.t49 sky130_fd_pr__nfet_01v8 ad=0.99 pd=6.33 as=0.99 ps=6.33 w=6 l=2
X25 a_n1455_n3628.t14 diffpairibias.t8 gnd.t38 gnd.t37 sky130_fd_pr__nfet_01v8 ad=2.34 pd=12.78 as=2.34 ps=12.78 w=6 l=2
X26 a_n1455_n3628.t5 minus.t6 a_n2686_12378.t2 gnd.t21 sky130_fd_pr__nfet_01v8 ad=0.99 pd=6.33 as=0.99 ps=6.33 w=6 l=1
X27 CSoutput.t87 a_n7677_7899.t29 vdd.t206 vdd.t4 sky130_fd_pr__pfet_01v8_lvt ad=1.155 pd=7.33 as=1.155 ps=7.33 w=7 l=1
X28 gnd.t102 commonsourceibias.t37 CSoutput.t66 gnd.t62 sky130_fd_pr__nfet_01v8 ad=0.99 pd=6.33 as=0.99 ps=6.33 w=6 l=2
X29 diffpairibias.t7 diffpairibias.t6 gnd.t3 gnd.t2 sky130_fd_pr__nfet_01v8 ad=2.34 pd=12.78 as=2.34 ps=12.78 w=6 l=2
X30 plus.t4 gnd.t214 gnd.t216 gnd.t215 sky130_fd_pr__nfet_01v8 ad=0.165 pd=1.33 as=0.165 ps=1.33 w=1 l=0.5
X31 gnd.t213 gnd.t210 gnd.t212 gnd.t211 sky130_fd_pr__nfet_01v8 ad=2.34 pd=12.78 as=0 ps=0 w=6 l=2
X32 vdd.t96 vdd.t94 vdd.t95 vdd.t61 sky130_fd_pr__pfet_01v8_lvt ad=2.34 pd=12.78 as=0 ps=0 w=6 l=1
X33 vdd.t93 vdd.t90 vdd.t92 vdd.t91 sky130_fd_pr__pfet_01v8_lvt ad=2.34 pd=12.78 as=0 ps=0 w=6 l=1
X34 vdd.t152 a_n7677_7899.t30 CSoutput.t26 vdd.t16 sky130_fd_pr__pfet_01v8_lvt ad=1.155 pd=7.33 as=1.155 ps=7.33 w=7 l=1
X35 gnd.t101 commonsourceibias.t38 CSoutput.t65 gnd.t85 sky130_fd_pr__nfet_01v8 ad=0.99 pd=6.33 as=0.99 ps=6.33 w=6 l=2
X36 gnd.t209 gnd.t207 minus.t4 gnd.t208 sky130_fd_pr__nfet_01v8 ad=0.39 pd=2.78 as=0.165 ps=1.33 w=1 l=0.5
X37 gnd.t206 gnd.t203 gnd.t205 gnd.t204 sky130_fd_pr__nfet_01v8 ad=2.34 pd=12.78 as=0 ps=0 w=6 l=2
X38 gnd.t99 commonsourceibias.t30 commonsourceibias.t31 gnd.t68 sky130_fd_pr__nfet_01v8 ad=2.34 pd=12.78 as=0.99 ps=6.33 w=6 l=2
X39 a_n2686_8022.t20 a_n2686_12378.t33 vdd.t139 vdd.t138 sky130_fd_pr__pfet_01v8_lvt ad=2.34 pd=12.78 as=0.99 ps=6.33 w=6 l=1
X40 CSoutput.t64 commonsourceibias.t39 gnd.t100 gnd.t87 sky130_fd_pr__nfet_01v8 ad=0.99 pd=6.33 as=2.34 ps=12.78 w=6 l=2
X41 gnd.t98 commonsourceibias.t40 CSoutput.t63 gnd.t47 sky130_fd_pr__nfet_01v8 ad=0.99 pd=6.33 as=0.99 ps=6.33 w=6 l=2
X42 vdd.t153 a_n7677_7899.t31 CSoutput.t27 vdd.t14 sky130_fd_pr__pfet_01v8_lvt ad=2.73 pd=14.78 as=1.155 ps=7.33 w=7 l=1
X43 CSoutput.t16 a_n7677_7899.t32 vdd.t119 vdd.t118 sky130_fd_pr__pfet_01v8_lvt ad=1.155 pd=7.33 as=2.73 ps=14.78 w=7 l=1
X44 commonsourceibias.t29 commonsourceibias.t28 gnd.t97 gnd.t54 sky130_fd_pr__nfet_01v8 ad=0.99 pd=6.33 as=2.34 ps=12.78 w=6 l=2
X45 vdd.t13 CSoutput.t95 output.t13 gnd.t11 sky130_fd_pr__nfet_01v8_lvt ad=0.825 pd=5.33 as=1.95 ps=10.78 w=5 l=1
X46 diffpairibias.t5 diffpairibias.t4 gnd.t14 gnd.t13 sky130_fd_pr__nfet_01v8 ad=2.34 pd=12.78 as=2.34 ps=12.78 w=6 l=2
X47 commonsourceibias.t27 commonsourceibias.t26 gnd.t96 gnd.t87 sky130_fd_pr__nfet_01v8 ad=0.99 pd=6.33 as=2.34 ps=12.78 w=6 l=2
X48 CSoutput.t17 a_n7677_7899.t33 vdd.t121 vdd.t120 sky130_fd_pr__pfet_01v8_lvt ad=1.155 pd=7.33 as=1.155 ps=7.33 w=7 l=1
X49 gnd.t202 gnd.t200 gnd.t201 gnd.t110 sky130_fd_pr__nfet_01v8 ad=2.34 pd=12.78 as=0 ps=0 w=6 l=2
X50 a_n1455_n3628.t16 minus.t7 a_n2686_12378.t28 gnd.t12 sky130_fd_pr__nfet_01v8 ad=2.34 pd=12.78 as=0.99 ps=6.33 w=6 l=1
X51 vdd.t18 a_n7677_7899.t34 CSoutput.t6 vdd.t16 sky130_fd_pr__pfet_01v8_lvt ad=1.155 pd=7.33 as=1.155 ps=7.33 w=7 l=1
X52 vdd.t20 a_n7677_7899.t35 CSoutput.t7 vdd.t19 sky130_fd_pr__pfet_01v8_lvt ad=1.155 pd=7.33 as=1.155 ps=7.33 w=7 l=1
X53 gnd.t199 gnd.t196 gnd.t198 gnd.t197 sky130_fd_pr__nfet_01v8 ad=2.34 pd=12.78 as=0 ps=0 w=6 l=2
X54 a_n2686_8022.t19 a_n2686_12378.t34 vdd.t143 vdd.t142 sky130_fd_pr__pfet_01v8_lvt ad=0.99 pd=6.33 as=0.99 ps=6.33 w=6 l=1
X55 vdd.t89 vdd.t87 vdd.t88 vdd.t68 sky130_fd_pr__pfet_01v8_lvt ad=2.73 pd=14.78 as=0 ps=0 w=7 l=1
X56 gnd.t195 gnd.t193 minus.t3 gnd.t194 sky130_fd_pr__nfet_01v8 ad=0.165 pd=1.33 as=0.39 ps=2.78 w=1 l=0.5
X57 output.t19 outputibias.t8 gnd.t36 gnd.t35 sky130_fd_pr__nfet_01v8 ad=2.34 pd=12.78 as=2.34 ps=12.78 w=6 l=2
X58 gnd.t95 commonsourceibias.t24 commonsourceibias.t25 gnd.t65 sky130_fd_pr__nfet_01v8 ad=2.34 pd=12.78 as=0.99 ps=6.33 w=6 l=2
X59 CSoutput.t2 a_n7677_7899.t36 vdd.t10 vdd.t9 sky130_fd_pr__pfet_01v8_lvt ad=1.155 pd=7.33 as=1.155 ps=7.33 w=7 l=1
X60 a_n1455_n3628.t1 diffpairibias.t9 gnd.t5 gnd.t4 sky130_fd_pr__nfet_01v8 ad=2.34 pd=12.78 as=2.34 ps=12.78 w=6 l=2
X61 CSoutput.t3 a_n7677_7899.t37 vdd.t11 vdd.t6 sky130_fd_pr__pfet_01v8_lvt ad=1.155 pd=7.33 as=1.155 ps=7.33 w=7 l=1
X62 a_n7677_7899.t15 plus.t6 a_n1455_n3628.t12 gnd.t15 sky130_fd_pr__nfet_01v8 ad=0.99 pd=6.33 as=0.99 ps=6.33 w=6 l=1
X63 gnd.t94 commonsourceibias.t22 commonsourceibias.t23 gnd.t47 sky130_fd_pr__nfet_01v8 ad=0.99 pd=6.33 as=0.99 ps=6.33 w=6 l=2
X64 a_n2686_12378.t24 a_n2686_12378.t23 a_n2511_10156.t17 vdd.t172 sky130_fd_pr__pfet_01v8_lvt ad=0.99 pd=6.33 as=0.99 ps=6.33 w=6 l=1
X65 a_n2686_12378.t10 a_n2686_12378.t9 a_n2511_10156.t16 vdd.t137 sky130_fd_pr__pfet_01v8_lvt ad=0.99 pd=6.33 as=0.99 ps=6.33 w=6 l=1
X66 commonsourceibias.t3 commonsourceibias.t2 gnd.t93 gnd.t77 sky130_fd_pr__nfet_01v8 ad=0.99 pd=6.33 as=0.99 ps=6.33 w=6 l=2
X67 vdd.t86 vdd.t84 vdd.t85 vdd.t43 sky130_fd_pr__pfet_01v8_lvt ad=2.73 pd=14.78 as=0 ps=0 w=7 l=1
X68 plus.t3 gnd.t190 gnd.t192 gnd.t191 sky130_fd_pr__nfet_01v8 ad=0.165 pd=1.33 as=0.165 ps=1.33 w=1 l=0.5
X69 gnd.t90 commonsourceibias.t0 commonsourceibias.t1 gnd.t60 sky130_fd_pr__nfet_01v8 ad=0.99 pd=6.33 as=0.99 ps=6.33 w=6 l=2
X70 output.t12 CSoutput.t96 vdd.t8 gnd.t9 sky130_fd_pr__nfet_01v8_lvt ad=0.825 pd=5.33 as=0.825 ps=5.33 w=5 l=1
X71 gnd.t189 gnd.t187 gnd.t188 gnd.t156 sky130_fd_pr__nfet_01v8 ad=2.34 pd=12.78 as=0 ps=0 w=6 l=1
X72 CSoutput.t62 commonsourceibias.t41 gnd.t92 gnd.t45 sky130_fd_pr__nfet_01v8 ad=0.99 pd=6.33 as=0.99 ps=6.33 w=6 l=2
X73 a_n2686_8022.t11 a_n2686_12378.t35 a_n7677_7899.t12 vdd.t172 sky130_fd_pr__pfet_01v8_lvt ad=0.99 pd=6.33 as=0.99 ps=6.33 w=6 l=1
X74 CSoutput.t12 a_n7677_7899.t38 vdd.t111 vdd.t110 sky130_fd_pr__pfet_01v8_lvt ad=1.155 pd=7.33 as=1.155 ps=7.33 w=7 l=1
X75 vdd.t112 a_n7677_7899.t39 CSoutput.t13 vdd.t14 sky130_fd_pr__pfet_01v8_lvt ad=2.73 pd=14.78 as=1.155 ps=7.33 w=7 l=1
X76 CSoutput.t97 a_n2686_8022.t0 sky130_fd_pr__cap_mim_m3_1 l=12 w=12
X77 gnd.t91 commonsourceibias.t42 CSoutput.t61 gnd.t62 sky130_fd_pr__nfet_01v8 ad=0.99 pd=6.33 as=0.99 ps=6.33 w=6 l=2
X78 a_n1455_n3628.t11 plus.t7 a_n7677_7899.t18 gnd.t224 sky130_fd_pr__nfet_01v8 ad=2.34 pd=12.78 as=0.99 ps=6.33 w=6 l=1
X79 a_n2686_8022.t18 a_n2686_12378.t36 vdd.t136 vdd.t135 sky130_fd_pr__pfet_01v8_lvt ad=2.34 pd=12.78 as=0.99 ps=6.33 w=6 l=1
X80 vdd.t104 a_n7677_7899.t40 CSoutput.t10 vdd.t103 sky130_fd_pr__pfet_01v8_lvt ad=2.73 pd=14.78 as=1.155 ps=7.33 w=7 l=1
X81 CSoutput.t98 a_n2686_8022.t0 sky130_fd_pr__cap_mim_m3_1 l=12 w=12
X82 gnd.t89 commonsourceibias.t43 CSoutput.t60 gnd.t85 sky130_fd_pr__nfet_01v8 ad=0.99 pd=6.33 as=0.99 ps=6.33 w=6 l=2
X83 vdd.t83 vdd.t81 vdd.t82 vdd.t36 sky130_fd_pr__pfet_01v8_lvt ad=2.73 pd=14.78 as=0 ps=0 w=7 l=1
X84 a_n7677_7899.t19 a_n2686_12378.t37 a_n2686_8022.t10 vdd.t21 sky130_fd_pr__pfet_01v8_lvt ad=0.99 pd=6.33 as=0.99 ps=6.33 w=6 l=1
X85 vdd.t80 vdd.t78 vdd.t79 vdd.t54 sky130_fd_pr__pfet_01v8_lvt ad=2.34 pd=12.78 as=0 ps=0 w=6 l=1
X86 CSoutput.t59 commonsourceibias.t44 gnd.t88 gnd.t87 sky130_fd_pr__nfet_01v8 ad=0.99 pd=6.33 as=2.34 ps=12.78 w=6 l=2
X87 gnd.t86 commonsourceibias.t20 commonsourceibias.t21 gnd.t85 sky130_fd_pr__nfet_01v8 ad=0.99 pd=6.33 as=0.99 ps=6.33 w=6 l=2
X88 a_n2511_10156.t15 a_n2686_12378.t7 a_n2686_12378.t8 vdd.t176 sky130_fd_pr__pfet_01v8_lvt ad=0.99 pd=6.33 as=0.99 ps=6.33 w=6 l=1
X89 vdd.t105 a_n7677_7899.t41 CSoutput.t11 vdd.t19 sky130_fd_pr__pfet_01v8_lvt ad=1.155 pd=7.33 as=1.155 ps=7.33 w=7 l=1
X90 CSoutput.t99 a_n2686_8022.t0 sky130_fd_pr__cap_mim_m3_1 l=12 w=12
X91 vdd.t106 CSoutput.t100 output.t11 gnd.t16 sky130_fd_pr__nfet_01v8_lvt ad=0.825 pd=5.33 as=0.825 ps=5.33 w=5 l=1
X92 CSoutput.t58 commonsourceibias.t45 gnd.t84 gnd.t77 sky130_fd_pr__nfet_01v8 ad=0.99 pd=6.33 as=0.99 ps=6.33 w=6 l=2
X93 vdd.t24 a_n7677_7899.t42 CSoutput.t8 vdd.t23 sky130_fd_pr__pfet_01v8_lvt ad=1.155 pd=7.33 as=1.155 ps=7.33 w=7 l=1
X94 commonsourceibias.t19 commonsourceibias.t18 gnd.t83 gnd.t51 sky130_fd_pr__nfet_01v8 ad=0.99 pd=6.33 as=0.99 ps=6.33 w=6 l=2
X95 gnd.t186 gnd.t184 gnd.t185 gnd.t160 sky130_fd_pr__nfet_01v8 ad=2.34 pd=12.78 as=0 ps=0 w=6 l=2
X96 gnd.t82 commonsourceibias.t46 CSoutput.t57 gnd.t74 sky130_fd_pr__nfet_01v8 ad=0.99 pd=6.33 as=0.99 ps=6.33 w=6 l=2
X97 vdd.t26 a_n7677_7899.t43 CSoutput.t9 vdd.t25 sky130_fd_pr__pfet_01v8_lvt ad=1.155 pd=7.33 as=1.155 ps=7.33 w=7 l=1
X98 CSoutput.t20 a_n7677_7899.t44 vdd.t132 vdd.t114 sky130_fd_pr__pfet_01v8_lvt ad=1.155 pd=7.33 as=1.155 ps=7.33 w=7 l=1
X99 gnd.t183 gnd.t181 gnd.t182 gnd.t132 sky130_fd_pr__nfet_01v8 ad=2.34 pd=12.78 as=0 ps=0 w=6 l=2
X100 vdd.t134 a_n7677_7899.t45 CSoutput.t21 vdd.t133 sky130_fd_pr__pfet_01v8_lvt ad=1.155 pd=7.33 as=1.155 ps=7.33 w=7 l=1
X101 CSoutput.t14 a_n7677_7899.t46 vdd.t115 vdd.t114 sky130_fd_pr__pfet_01v8_lvt ad=1.155 pd=7.33 as=1.155 ps=7.33 w=7 l=1
X102 vdd.t77 vdd.t74 vdd.t76 vdd.t75 sky130_fd_pr__pfet_01v8_lvt ad=2.34 pd=12.78 as=0 ps=0 w=6 l=1
X103 CSoutput.t56 commonsourceibias.t47 gnd.t81 gnd.t72 sky130_fd_pr__nfet_01v8 ad=0.99 pd=6.33 as=0.99 ps=6.33 w=6 l=2
X104 vdd.t73 vdd.t71 vdd.t72 vdd.t28 sky130_fd_pr__pfet_01v8_lvt ad=2.73 pd=14.78 as=0 ps=0 w=7 l=1
X105 a_n7677_7899.t10 a_n2686_12378.t38 a_n2686_8022.t9 vdd.t173 sky130_fd_pr__pfet_01v8_lvt ad=0.99 pd=6.33 as=2.34 ps=12.78 w=6 l=1
X106 vdd.t146 a_n2686_12378.t39 a_n2511_10156.t7 vdd.t145 sky130_fd_pr__pfet_01v8_lvt ad=0.99 pd=6.33 as=2.34 ps=12.78 w=6 l=1
X107 vdd.t117 a_n7677_7899.t47 CSoutput.t15 vdd.t116 sky130_fd_pr__pfet_01v8_lvt ad=1.155 pd=7.33 as=1.155 ps=7.33 w=7 l=1
X108 gnd.t180 gnd.t178 plus.t2 gnd.t179 sky130_fd_pr__nfet_01v8 ad=0.39 pd=2.78 as=0.165 ps=1.33 w=1 l=0.5
X109 a_n7677_7899.t1 plus.t8 a_n1455_n3628.t10 gnd.t8 sky130_fd_pr__nfet_01v8 ad=0.99 pd=6.33 as=0.99 ps=6.33 w=6 l=1
X110 a_n2686_8022.t8 a_n2686_12378.t40 a_n7677_7899.t5 vdd.t113 sky130_fd_pr__pfet_01v8_lvt ad=2.34 pd=12.78 as=0.99 ps=6.33 w=6 l=1
X111 minus.t2 gnd.t175 gnd.t177 gnd.t176 sky130_fd_pr__nfet_01v8 ad=0.165 pd=1.33 as=0.165 ps=1.33 w=1 l=0.5
X112 commonsourceibias.t11 commonsourceibias.t10 gnd.t80 gnd.t72 sky130_fd_pr__nfet_01v8 ad=0.99 pd=6.33 as=0.99 ps=6.33 w=6 l=2
X113 CSoutput.t78 a_n7677_7899.t48 vdd.t190 vdd.t147 sky130_fd_pr__pfet_01v8_lvt ad=1.155 pd=7.33 as=2.73 ps=14.78 w=7 l=1
X114 a_n2511_10156.t14 a_n2686_12378.t21 a_n2686_12378.t22 vdd.t21 sky130_fd_pr__pfet_01v8_lvt ad=0.99 pd=6.33 as=0.99 ps=6.33 w=6 l=1
X115 vdd.t191 a_n7677_7899.t49 CSoutput.t79 vdd.t156 sky130_fd_pr__pfet_01v8_lvt ad=1.155 pd=7.33 as=1.155 ps=7.33 w=7 l=1
X116 a_n7677_7899.t0 a_n2686_12378.t41 a_n2686_8022.t7 vdd.t0 sky130_fd_pr__pfet_01v8_lvt ad=0.99 pd=6.33 as=2.34 ps=12.78 w=6 l=1
X117 outputibias.t7 outputibias.t6 gnd.t28 gnd.t27 sky130_fd_pr__nfet_01v8 ad=2.34 pd=12.78 as=2.34 ps=12.78 w=6 l=2
X118 vdd.t178 a_n2686_12378.t42 a_n2511_10156.t6 vdd.t177 sky130_fd_pr__pfet_01v8_lvt ad=0.99 pd=6.33 as=0.99 ps=6.33 w=6 l=1
X119 vdd.t166 a_n2686_12378.t43 a_n2686_8022.t17 vdd.t165 sky130_fd_pr__pfet_01v8_lvt ad=0.99 pd=6.33 as=2.34 ps=12.78 w=6 l=1
X120 gnd.t79 commonsourceibias.t48 CSoutput.t55 gnd.t68 sky130_fd_pr__nfet_01v8 ad=2.34 pd=12.78 as=0.99 ps=6.33 w=6 l=2
X121 diffpairibias.t3 diffpairibias.t2 gnd.t26 gnd.t25 sky130_fd_pr__nfet_01v8 ad=2.34 pd=12.78 as=2.34 ps=12.78 w=6 l=2
X122 outputibias.t5 outputibias.t4 gnd.t40 gnd.t39 sky130_fd_pr__nfet_01v8 ad=2.34 pd=12.78 as=2.34 ps=12.78 w=6 l=2
X123 outputibias.t3 outputibias.t2 gnd.t42 gnd.t41 sky130_fd_pr__nfet_01v8 ad=2.34 pd=12.78 as=2.34 ps=12.78 w=6 l=2
X124 gnd.t174 gnd.t172 gnd.t173 gnd.t120 sky130_fd_pr__nfet_01v8 ad=2.34 pd=12.78 as=0 ps=0 w=6 l=1
X125 CSoutput.t82 a_n7677_7899.t50 vdd.t199 vdd.t118 sky130_fd_pr__pfet_01v8_lvt ad=1.155 pd=7.33 as=2.73 ps=14.78 w=7 l=1
X126 a_n2686_8022.t6 a_n2686_12378.t44 a_n7677_7899.t7 vdd.t155 sky130_fd_pr__pfet_01v8_lvt ad=0.99 pd=6.33 as=0.99 ps=6.33 w=6 l=1
X127 CSoutput.t54 commonsourceibias.t49 gnd.t78 gnd.t77 sky130_fd_pr__nfet_01v8 ad=0.99 pd=6.33 as=0.99 ps=6.33 w=6 l=2
X128 vdd.t107 CSoutput.t101 output.t10 gnd.t17 sky130_fd_pr__nfet_01v8_lvt ad=0.825 pd=5.33 as=0.825 ps=5.33 w=5 l=1
X129 vdd.t202 a_n2686_12378.t45 a_n2686_8022.t16 vdd.t201 sky130_fd_pr__pfet_01v8_lvt ad=0.99 pd=6.33 as=2.34 ps=12.78 w=6 l=1
X130 gnd.t76 commonsourceibias.t50 CSoutput.t53 gnd.t65 sky130_fd_pr__nfet_01v8 ad=2.34 pd=12.78 as=0.99 ps=6.33 w=6 l=2
X131 gnd.t171 gnd.t169 gnd.t170 gnd.t160 sky130_fd_pr__nfet_01v8 ad=2.34 pd=12.78 as=0 ps=0 w=6 l=2
X132 gnd.t75 commonsourceibias.t51 CSoutput.t52 gnd.t74 sky130_fd_pr__nfet_01v8 ad=0.99 pd=6.33 as=0.99 ps=6.33 w=6 l=2
X133 a_n1455_n3628.t4 minus.t8 a_n2686_12378.t1 gnd.t18 sky130_fd_pr__nfet_01v8 ad=0.99 pd=6.33 as=0.99 ps=6.33 w=6 l=1
X134 CSoutput.t83 a_n7677_7899.t51 vdd.t200 vdd.t167 sky130_fd_pr__pfet_01v8_lvt ad=1.155 pd=7.33 as=1.155 ps=7.33 w=7 l=1
X135 a_n2686_8022.t5 a_n2686_12378.t46 a_n7677_7899.t4 vdd.t137 sky130_fd_pr__pfet_01v8_lvt ad=0.99 pd=6.33 as=0.99 ps=6.33 w=6 l=1
X136 vdd.t70 vdd.t67 vdd.t69 vdd.t68 sky130_fd_pr__pfet_01v8_lvt ad=2.73 pd=14.78 as=0 ps=0 w=7 l=1
X137 vdd.t130 a_n7677_7899.t52 CSoutput.t18 vdd.t129 sky130_fd_pr__pfet_01v8_lvt ad=1.155 pd=7.33 as=1.155 ps=7.33 w=7 l=1
X138 vdd.t131 a_n7677_7899.t53 CSoutput.t19 vdd.t129 sky130_fd_pr__pfet_01v8_lvt ad=1.155 pd=7.33 as=1.155 ps=7.33 w=7 l=1
X139 gnd.t168 gnd.t166 plus.t1 gnd.t167 sky130_fd_pr__nfet_01v8 ad=0.165 pd=1.33 as=0.165 ps=1.33 w=1 l=0.5
X140 vdd.t125 a_n2686_12378.t47 a_n2511_10156.t5 vdd.t124 sky130_fd_pr__pfet_01v8_lvt ad=0.99 pd=6.33 as=2.34 ps=12.78 w=6 l=1
X141 vdd.t66 vdd.t64 vdd.t65 vdd.t32 sky130_fd_pr__pfet_01v8_lvt ad=2.34 pd=12.78 as=0 ps=0 w=6 l=1
X142 a_n1455_n3628.t2 diffpairibias.t10 gnd.t7 gnd.t6 sky130_fd_pr__nfet_01v8 ad=2.34 pd=12.78 as=2.34 ps=12.78 w=6 l=2
X143 gnd.t165 gnd.t163 gnd.t164 gnd.t132 sky130_fd_pr__nfet_01v8 ad=2.34 pd=12.78 as=0 ps=0 w=6 l=2
X144 a_n2511_10156.t4 a_n2686_12378.t48 vdd.t175 vdd.t174 sky130_fd_pr__pfet_01v8_lvt ad=2.34 pd=12.78 as=0.99 ps=6.33 w=6 l=1
X145 CSoutput.t74 a_n7677_7899.t54 vdd.t185 vdd.t110 sky130_fd_pr__pfet_01v8_lvt ad=1.155 pd=7.33 as=1.155 ps=7.33 w=7 l=1
X146 CSoutput.t75 a_n7677_7899.t55 vdd.t187 vdd.t186 sky130_fd_pr__pfet_01v8_lvt ad=1.155 pd=7.33 as=1.155 ps=7.33 w=7 l=1
X147 CSoutput.t51 commonsourceibias.t52 gnd.t73 gnd.t72 sky130_fd_pr__nfet_01v8 ad=0.99 pd=6.33 as=0.99 ps=6.33 w=6 l=2
X148 outputibias.t1 outputibias.t0 gnd.t44 gnd.t43 sky130_fd_pr__nfet_01v8 ad=2.34 pd=12.78 as=2.34 ps=12.78 w=6 l=2
X149 a_n2686_12378.t27 minus.t9 a_n1455_n3628.t15 gnd.t217 sky130_fd_pr__nfet_01v8 ad=0.99 pd=6.33 as=2.34 ps=12.78 w=6 l=1
X150 CSoutput.t0 a_n7677_7899.t56 vdd.t5 vdd.t4 sky130_fd_pr__pfet_01v8_lvt ad=1.155 pd=7.33 as=1.155 ps=7.33 w=7 l=1
X151 a_n1455_n3628.t9 plus.t9 a_n7677_7899.t2 gnd.t12 sky130_fd_pr__nfet_01v8 ad=2.34 pd=12.78 as=0.99 ps=6.33 w=6 l=1
X152 a_n7677_7899.t13 a_n2686_12378.t49 a_n2686_8022.t4 vdd.t176 sky130_fd_pr__pfet_01v8_lvt ad=0.99 pd=6.33 as=0.99 ps=6.33 w=6 l=1
X153 output.t9 CSoutput.t102 vdd.t207 gnd.t225 sky130_fd_pr__nfet_01v8_lvt ad=0.825 pd=5.33 as=0.825 ps=5.33 w=5 l=1
X154 gnd.t71 commonsourceibias.t53 CSoutput.t50 gnd.t60 sky130_fd_pr__nfet_01v8 ad=0.99 pd=6.33 as=0.99 ps=6.33 w=6 l=2
X155 gnd.t70 commonsourceibias.t54 CSoutput.t49 gnd.t58 sky130_fd_pr__nfet_01v8 ad=0.99 pd=6.33 as=0.99 ps=6.33 w=6 l=2
X156 gnd.t69 commonsourceibias.t55 CSoutput.t48 gnd.t68 sky130_fd_pr__nfet_01v8 ad=2.34 pd=12.78 as=0.99 ps=6.33 w=6 l=2
X157 a_n7677_7899.t16 plus.t10 a_n1455_n3628.t8 gnd.t223 sky130_fd_pr__nfet_01v8 ad=0.99 pd=6.33 as=2.34 ps=12.78 w=6 l=1
X158 a_n2686_12378.t0 minus.t10 a_n1455_n3628.t3 gnd.t15 sky130_fd_pr__nfet_01v8 ad=0.99 pd=6.33 as=0.99 ps=6.33 w=6 l=1
X159 CSoutput.t1 a_n7677_7899.t57 vdd.t7 vdd.t6 sky130_fd_pr__pfet_01v8_lvt ad=1.155 pd=7.33 as=1.155 ps=7.33 w=7 l=1
X160 a_n1455_n3628.t7 plus.t11 a_n7677_7899.t17 gnd.t21 sky130_fd_pr__nfet_01v8 ad=0.99 pd=6.33 as=0.99 ps=6.33 w=6 l=1
X161 vdd.t15 a_n7677_7899.t58 CSoutput.t4 vdd.t14 sky130_fd_pr__pfet_01v8_lvt ad=2.73 pd=14.78 as=1.155 ps=7.33 w=7 l=1
X162 vdd.t63 vdd.t60 vdd.t62 vdd.t61 sky130_fd_pr__pfet_01v8_lvt ad=2.34 pd=12.78 as=0 ps=0 w=6 l=1
X163 a_n2511_10156.t13 a_n2686_12378.t3 a_n2686_12378.t4 vdd.t173 sky130_fd_pr__pfet_01v8_lvt ad=0.99 pd=6.33 as=2.34 ps=12.78 w=6 l=1
X164 vdd.t17 a_n7677_7899.t59 CSoutput.t5 vdd.t16 sky130_fd_pr__pfet_01v8_lvt ad=1.155 pd=7.33 as=1.155 ps=7.33 w=7 l=1
X165 a_n2686_12378.t16 a_n2686_12378.t15 a_n2511_10156.t12 vdd.t113 sky130_fd_pr__pfet_01v8_lvt ad=2.34 pd=12.78 as=0.99 ps=6.33 w=6 l=1
X166 vdd.t123 a_n2686_12378.t50 a_n2686_8022.t15 vdd.t122 sky130_fd_pr__pfet_01v8_lvt ad=0.99 pd=6.33 as=0.99 ps=6.33 w=6 l=1
X167 vdd.t208 CSoutput.t103 output.t8 gnd.t226 sky130_fd_pr__nfet_01v8_lvt ad=0.825 pd=5.33 as=0.825 ps=5.33 w=5 l=1
X168 CSoutput.t24 a_n7677_7899.t60 vdd.t150 vdd.t120 sky130_fd_pr__pfet_01v8_lvt ad=1.155 pd=7.33 as=1.155 ps=7.33 w=7 l=1
X169 output.t7 CSoutput.t104 vdd.t209 gnd.t227 sky130_fd_pr__nfet_01v8_lvt ad=0.825 pd=5.33 as=0.825 ps=5.33 w=5 l=1
X170 CSoutput.t25 a_n7677_7899.t61 vdd.t151 vdd.t9 sky130_fd_pr__pfet_01v8_lvt ad=1.155 pd=7.33 as=1.155 ps=7.33 w=7 l=1
X171 a_n2686_12378.t20 a_n2686_12378.t19 a_n2511_10156.t11 vdd.t3 sky130_fd_pr__pfet_01v8_lvt ad=2.34 pd=12.78 as=0.99 ps=6.33 w=6 l=1
X172 gnd.t162 gnd.t159 gnd.t161 gnd.t160 sky130_fd_pr__nfet_01v8 ad=2.34 pd=12.78 as=0 ps=0 w=6 l=2
X173 gnd.t158 gnd.t155 gnd.t157 gnd.t156 sky130_fd_pr__nfet_01v8 ad=2.34 pd=12.78 as=0 ps=0 w=6 l=1
X174 a_n7677_7899.t6 a_n2686_12378.t51 a_n2686_8022.t3 vdd.t144 sky130_fd_pr__pfet_01v8_lvt ad=0.99 pd=6.33 as=0.99 ps=6.33 w=6 l=1
X175 output.t6 CSoutput.t105 vdd.t196 gnd.t220 sky130_fd_pr__nfet_01v8_lvt ad=0.825 pd=5.33 as=0.825 ps=5.33 w=5 l=1
X176 CSoutput.t38 a_n7677_7899.t62 vdd.t170 vdd.t6 sky130_fd_pr__pfet_01v8_lvt ad=1.155 pd=7.33 as=1.155 ps=7.33 w=7 l=1
X177 a_n2686_8022.t2 a_n2686_12378.t52 a_n7677_7899.t11 vdd.t3 sky130_fd_pr__pfet_01v8_lvt ad=2.34 pd=12.78 as=0.99 ps=6.33 w=6 l=1
X178 vdd.t171 a_n7677_7899.t63 CSoutput.t39 vdd.t133 sky130_fd_pr__pfet_01v8_lvt ad=1.155 pd=7.33 as=1.155 ps=7.33 w=7 l=1
X179 commonsourceibias.t7 commonsourceibias.t6 gnd.t67 gnd.t56 sky130_fd_pr__nfet_01v8 ad=0.99 pd=6.33 as=0.99 ps=6.33 w=6 l=2
X180 gnd.t66 commonsourceibias.t56 CSoutput.t47 gnd.t65 sky130_fd_pr__nfet_01v8 ad=2.34 pd=12.78 as=0.99 ps=6.33 w=6 l=2
X181 a_n1455_n3628.t18 minus.t11 a_n2686_12378.t30 gnd.t224 sky130_fd_pr__nfet_01v8 ad=2.34 pd=12.78 as=0.99 ps=6.33 w=6 l=1
X182 gnd.t154 gnd.t152 gnd.t153 gnd.t124 sky130_fd_pr__nfet_01v8 ad=2.34 pd=12.78 as=0 ps=0 w=6 l=2
X183 vdd.t59 vdd.t57 vdd.t58 vdd.t43 sky130_fd_pr__pfet_01v8_lvt ad=2.73 pd=14.78 as=0 ps=0 w=7 l=1
X184 a_n1455_n3628.t0 diffpairibias.t11 gnd.t1 gnd.t0 sky130_fd_pr__nfet_01v8 ad=2.34 pd=12.78 as=2.34 ps=12.78 w=6 l=2
X185 gnd.t151 gnd.t149 gnd.t150 gnd.t124 sky130_fd_pr__nfet_01v8 ad=2.34 pd=12.78 as=0 ps=0 w=6 l=2
X186 vdd.t195 a_n2686_12378.t53 a_n2686_8022.t14 vdd.t194 sky130_fd_pr__pfet_01v8_lvt ad=0.99 pd=6.33 as=0.99 ps=6.33 w=6 l=1
X187 vdd.t161 a_n7677_7899.t64 CSoutput.t32 vdd.t156 sky130_fd_pr__pfet_01v8_lvt ad=1.155 pd=7.33 as=1.155 ps=7.33 w=7 l=1
X188 vdd.t56 vdd.t53 vdd.t55 vdd.t54 sky130_fd_pr__pfet_01v8_lvt ad=2.34 pd=12.78 as=0 ps=0 w=6 l=1
X189 a_n2511_10156.t10 a_n2686_12378.t13 a_n2686_12378.t14 vdd.t154 sky130_fd_pr__pfet_01v8_lvt ad=0.99 pd=6.33 as=0.99 ps=6.33 w=6 l=1
X190 CSoutput.t106 a_n2686_8022.t0 sky130_fd_pr__cap_mim_m3_1 l=12 w=12
X191 gnd.t64 commonsourceibias.t14 commonsourceibias.t15 gnd.t58 sky130_fd_pr__nfet_01v8 ad=0.99 pd=6.33 as=0.99 ps=6.33 w=6 l=2
X192 a_n2686_8022.t13 a_n2686_12378.t54 vdd.t182 vdd.t181 sky130_fd_pr__pfet_01v8_lvt ad=0.99 pd=6.33 as=0.99 ps=6.33 w=6 l=1
X193 output.t5 CSoutput.t107 vdd.t197 gnd.t221 sky130_fd_pr__nfet_01v8_lvt ad=0.825 pd=5.33 as=0.825 ps=5.33 w=5 l=1
X194 a_n2511_10156.t3 a_n2686_12378.t55 vdd.t2 vdd.t1 sky130_fd_pr__pfet_01v8_lvt ad=0.99 pd=6.33 as=0.99 ps=6.33 w=6 l=1
X195 vdd.t162 a_n7677_7899.t65 CSoutput.t33 vdd.t103 sky130_fd_pr__pfet_01v8_lvt ad=2.73 pd=14.78 as=1.155 ps=7.33 w=7 l=1
X196 gnd.t148 gnd.t145 gnd.t147 gnd.t146 sky130_fd_pr__nfet_01v8_lvt ad=1.95 pd=10.78 as=0 ps=0 w=5 l=1
X197 gnd.t144 gnd.t141 gnd.t143 gnd.t142 sky130_fd_pr__nfet_01v8_lvt ad=1.95 pd=10.78 as=0 ps=0 w=5 l=1
X198 a_n2511_10156.t2 a_n2686_12378.t56 vdd.t180 vdd.t179 sky130_fd_pr__pfet_01v8_lvt ad=2.34 pd=12.78 as=0.99 ps=6.33 w=6 l=1
X199 gnd.t63 commonsourceibias.t12 commonsourceibias.t13 gnd.t62 sky130_fd_pr__nfet_01v8 ad=0.99 pd=6.33 as=0.99 ps=6.33 w=6 l=2
X200 vdd.t108 CSoutput.t108 output.t4 gnd.t19 sky130_fd_pr__nfet_01v8_lvt ad=0.825 pd=5.33 as=0.825 ps=5.33 w=5 l=1
X201 a_n7677_7899.t8 a_n2686_12378.t57 a_n2686_8022.t1 vdd.t154 sky130_fd_pr__pfet_01v8_lvt ad=0.99 pd=6.33 as=0.99 ps=6.33 w=6 l=1
X202 minus.t1 gnd.t138 gnd.t140 gnd.t139 sky130_fd_pr__nfet_01v8 ad=0.165 pd=1.33 as=0.165 ps=1.33 w=1 l=0.5
X203 CSoutput.t36 a_n7677_7899.t66 vdd.t168 vdd.t167 sky130_fd_pr__pfet_01v8_lvt ad=1.155 pd=7.33 as=1.155 ps=7.33 w=7 l=1
X204 gnd.t61 commonsourceibias.t57 CSoutput.t46 gnd.t60 sky130_fd_pr__nfet_01v8 ad=0.99 pd=6.33 as=0.99 ps=6.33 w=6 l=2
X205 gnd.t59 commonsourceibias.t58 CSoutput.t45 gnd.t58 sky130_fd_pr__nfet_01v8 ad=0.99 pd=6.33 as=0.99 ps=6.33 w=6 l=2
X206 CSoutput.t44 commonsourceibias.t59 gnd.t57 gnd.t56 sky130_fd_pr__nfet_01v8 ad=0.99 pd=6.33 as=0.99 ps=6.33 w=6 l=2
X207 vdd.t52 vdd.t50 vdd.t51 vdd.t36 sky130_fd_pr__pfet_01v8_lvt ad=2.73 pd=14.78 as=0 ps=0 w=7 l=1
X208 vdd.t169 a_n7677_7899.t67 CSoutput.t37 vdd.t19 sky130_fd_pr__pfet_01v8_lvt ad=1.155 pd=7.33 as=1.155 ps=7.33 w=7 l=1
X209 diffpairibias.t1 diffpairibias.t0 gnd.t219 gnd.t218 sky130_fd_pr__nfet_01v8 ad=2.34 pd=12.78 as=2.34 ps=12.78 w=6 l=2
X210 CSoutput.t30 a_n7677_7899.t68 vdd.t159 vdd.t9 sky130_fd_pr__pfet_01v8_lvt ad=1.155 pd=7.33 as=1.155 ps=7.33 w=7 l=1
X211 gnd.t137 gnd.t135 gnd.t136 gnd.t110 sky130_fd_pr__nfet_01v8 ad=2.34 pd=12.78 as=0 ps=0 w=6 l=2
X212 CSoutput.t43 commonsourceibias.t60 gnd.t55 gnd.t54 sky130_fd_pr__nfet_01v8 ad=0.99 pd=6.33 as=2.34 ps=12.78 w=6 l=2
X213 vdd.t160 a_n7677_7899.t69 CSoutput.t31 vdd.t23 sky130_fd_pr__pfet_01v8_lvt ad=1.155 pd=7.33 as=1.155 ps=7.33 w=7 l=1
X214 vdd.t210 a_n7677_7899.t70 CSoutput.t88 vdd.t25 sky130_fd_pr__pfet_01v8_lvt ad=1.155 pd=7.33 as=1.155 ps=7.33 w=7 l=1
X215 a_n2686_12378.t12 a_n2686_12378.t11 a_n2511_10156.t9 vdd.t22 sky130_fd_pr__pfet_01v8_lvt ad=0.99 pd=6.33 as=0.99 ps=6.33 w=6 l=1
X216 CSoutput.t109 a_n2686_8022.t0 sky130_fd_pr__cap_mim_m3_1 l=12 w=12
X217 output.t18 outputibias.t9 gnd.t34 gnd.t33 sky130_fd_pr__nfet_01v8 ad=2.34 pd=12.78 as=2.34 ps=12.78 w=6 l=2
X218 commonsourceibias.t17 commonsourceibias.t16 gnd.t53 gnd.t49 sky130_fd_pr__nfet_01v8 ad=0.99 pd=6.33 as=0.99 ps=6.33 w=6 l=2
X219 vdd.t211 a_n7677_7899.t71 CSoutput.t89 vdd.t25 sky130_fd_pr__pfet_01v8_lvt ad=1.155 pd=7.33 as=1.155 ps=7.33 w=7 l=1
X220 vdd.t49 vdd.t46 vdd.t48 vdd.t47 sky130_fd_pr__pfet_01v8_lvt ad=2.34 pd=12.78 as=0 ps=0 w=6 l=1
X221 output.t17 outputibias.t10 gnd.t32 gnd.t31 sky130_fd_pr__nfet_01v8 ad=2.34 pd=12.78 as=2.34 ps=12.78 w=6 l=2
X222 gnd.t134 gnd.t131 gnd.t133 gnd.t132 sky130_fd_pr__nfet_01v8 ad=2.34 pd=12.78 as=0 ps=0 w=6 l=2
X223 vdd.t109 CSoutput.t110 output.t3 gnd.t20 sky130_fd_pr__nfet_01v8_lvt ad=0.825 pd=5.33 as=0.825 ps=5.33 w=5 l=1
X224 vdd.t215 a_n2686_12378.t58 a_n2511_10156.t1 vdd.t214 sky130_fd_pr__pfet_01v8_lvt ad=0.99 pd=6.33 as=0.99 ps=6.33 w=6 l=1
X225 vdd.t188 a_n7677_7899.t72 CSoutput.t76 vdd.t133 sky130_fd_pr__pfet_01v8_lvt ad=1.155 pd=7.33 as=1.155 ps=7.33 w=7 l=1
X226 vdd.t45 vdd.t42 vdd.t44 vdd.t43 sky130_fd_pr__pfet_01v8_lvt ad=2.73 pd=14.78 as=0 ps=0 w=7 l=1
X227 output.t16 outputibias.t11 gnd.t30 gnd.t29 sky130_fd_pr__nfet_01v8 ad=2.34 pd=12.78 as=2.34 ps=12.78 w=6 l=2
X228 vdd.t41 vdd.t39 vdd.t40 vdd.t28 sky130_fd_pr__pfet_01v8_lvt ad=2.73 pd=14.78 as=0 ps=0 w=7 l=1
X229 vdd.t126 CSoutput.t111 output.t2 gnd.t22 sky130_fd_pr__nfet_01v8_lvt ad=0.825 pd=5.33 as=0.825 ps=5.33 w=5 l=1
X230 output.t1 CSoutput.t112 vdd.t127 gnd.t23 sky130_fd_pr__nfet_01v8_lvt ad=0.825 pd=5.33 as=0.825 ps=5.33 w=5 l=1
X231 CSoutput.t77 a_n7677_7899.t73 vdd.t189 vdd.t114 sky130_fd_pr__pfet_01v8_lvt ad=1.155 pd=7.33 as=1.155 ps=7.33 w=7 l=1
X232 vdd.t203 a_n7677_7899.t74 CSoutput.t84 vdd.t103 sky130_fd_pr__pfet_01v8_lvt ad=2.73 pd=14.78 as=1.155 ps=7.33 w=7 l=1
X233 CSoutput.t42 commonsourceibias.t61 gnd.t52 gnd.t51 sky130_fd_pr__nfet_01v8 ad=0.99 pd=6.33 as=0.99 ps=6.33 w=6 l=2
X234 CSoutput.t41 commonsourceibias.t62 gnd.t50 gnd.t49 sky130_fd_pr__nfet_01v8 ad=0.99 pd=6.33 as=0.99 ps=6.33 w=6 l=2
X235 a_n2511_10156.t0 a_n2686_12378.t59 vdd.t141 vdd.t140 sky130_fd_pr__pfet_01v8_lvt ad=0.99 pd=6.33 as=0.99 ps=6.33 w=6 l=1
X236 gnd.t130 gnd.t127 gnd.t129 gnd.t128 sky130_fd_pr__nfet_01v8 ad=2.34 pd=12.78 as=0 ps=0 w=6 l=2
X237 vdd.t204 a_n7677_7899.t75 CSoutput.t85 vdd.t116 sky130_fd_pr__pfet_01v8_lvt ad=1.155 pd=7.33 as=1.155 ps=7.33 w=7 l=1
X238 gnd.t126 gnd.t123 gnd.t125 gnd.t124 sky130_fd_pr__nfet_01v8 ad=2.34 pd=12.78 as=0 ps=0 w=6 l=2
X239 CSoutput.t22 a_n7677_7899.t76 vdd.t148 vdd.t147 sky130_fd_pr__pfet_01v8_lvt ad=1.155 pd=7.33 as=2.73 ps=14.78 w=7 l=1
X240 CSoutput.t23 a_n7677_7899.t77 vdd.t149 vdd.t4 sky130_fd_pr__pfet_01v8_lvt ad=1.155 pd=7.33 as=1.155 ps=7.33 w=7 l=1
X241 gnd.t122 gnd.t119 gnd.t121 gnd.t120 sky130_fd_pr__nfet_01v8 ad=2.34 pd=12.78 as=0 ps=0 w=6 l=1
X242 gnd.t118 gnd.t116 plus.t0 gnd.t117 sky130_fd_pr__nfet_01v8 ad=0.165 pd=1.33 as=0.39 ps=2.78 w=1 l=0.5
X243 vdd.t38 vdd.t35 vdd.t37 vdd.t36 sky130_fd_pr__pfet_01v8_lvt ad=2.73 pd=14.78 as=0 ps=0 w=7 l=1
X244 gnd.t48 commonsourceibias.t63 CSoutput.t40 gnd.t47 sky130_fd_pr__nfet_01v8 ad=0.99 pd=6.33 as=0.99 ps=6.33 w=6 l=2
X245 vdd.t157 a_n7677_7899.t78 CSoutput.t28 vdd.t156 sky130_fd_pr__pfet_01v8_lvt ad=1.155 pd=7.33 as=1.155 ps=7.33 w=7 l=1
X246 vdd.t34 vdd.t31 vdd.t33 vdd.t32 sky130_fd_pr__pfet_01v8_lvt ad=2.34 pd=12.78 as=0 ps=0 w=6 l=1
X247 vdd.t128 CSoutput.t113 output.t0 gnd.t24 sky130_fd_pr__nfet_01v8_lvt ad=0.825 pd=5.33 as=0.825 ps=5.33 w=5 l=1
X248 a_n1455_n3628.t6 plus.t12 a_n7677_7899.t3 gnd.t18 sky130_fd_pr__nfet_01v8 ad=0.99 pd=6.33 as=0.99 ps=6.33 w=6 l=1
X249 a_n2686_12378.t29 minus.t12 a_n1455_n3628.t17 gnd.t8 sky130_fd_pr__nfet_01v8 ad=0.99 pd=6.33 as=0.99 ps=6.33 w=6 l=1
X250 commonsourceibias.t9 commonsourceibias.t8 gnd.t46 gnd.t45 sky130_fd_pr__nfet_01v8 ad=0.99 pd=6.33 as=0.99 ps=6.33 w=6 l=2
X251 a_n2511_10156.t8 a_n2686_12378.t5 a_n2686_12378.t6 vdd.t0 sky130_fd_pr__pfet_01v8_lvt ad=0.99 pd=6.33 as=2.34 ps=12.78 w=6 l=1
X252 vdd.t30 vdd.t27 vdd.t29 vdd.t28 sky130_fd_pr__pfet_01v8_lvt ad=2.73 pd=14.78 as=0 ps=0 w=7 l=1
X253 CSoutput.t29 a_n7677_7899.t79 vdd.t158 vdd.t120 sky130_fd_pr__pfet_01v8_lvt ad=1.155 pd=7.33 as=1.155 ps=7.33 w=7 l=1