* NGSPICE file created from opamp625.ext - technology: sky130A

.subckt opamp625 gnd CSoutput output vdd plus minus commonsourceibias outputibias
+ diffpairibias
X0 a_n2804_13878.t29 a_n2982_13878.t52 a_n2982_13878.t53 vdd.t183 sky130_fd_pr__pfet_01v8 ad=1.485 pd=9.33 as=1.485 ps=9.33 w=9 l=0.5
X1 CSoutput.t113 commonsourceibias.t64 gnd.t296 gnd.t227 sky130_fd_pr__nfet_01v8 ad=1.155 pd=7.33 as=1.155 ps=7.33 w=7 l=1
X2 a_n2804_13878.t0 a_n2982_13878.t72 vdd.t196 vdd.t195 sky130_fd_pr__pfet_01v8 ad=1.485 pd=9.33 as=1.485 ps=9.33 w=9 l=0.5
X3 vdd.t216 a_n9628_8799.t48 CSoutput.t200 vdd.t204 sky130_fd_pr__pfet_01v8 ad=1.32 pd=8.33 as=1.32 ps=8.33 w=8 l=0.5
X4 gnd.t295 commonsourceibias.t65 CSoutput.t112 gnd.t218 sky130_fd_pr__nfet_01v8 ad=1.155 pd=7.33 as=1.155 ps=7.33 w=7 l=1
X5 CSoutput.t111 commonsourceibias.t66 gnd.t294 gnd.t192 sky130_fd_pr__nfet_01v8 ad=1.155 pd=7.33 as=1.155 ps=7.33 w=7 l=1
X6 CSoutput.t110 commonsourceibias.t67 gnd.t293 gnd.t137 sky130_fd_pr__nfet_01v8 ad=1.155 pd=7.33 as=1.155 ps=7.33 w=7 l=1
X7 CSoutput.t201 a_n9628_8799.t49 vdd.t217 vdd.t120 sky130_fd_pr__pfet_01v8 ad=1.32 pd=8.33 as=1.32 ps=8.33 w=8 l=0.5
X8 vdd.t230 a_n9628_8799.t50 CSoutput.t214 vdd.t114 sky130_fd_pr__pfet_01v8 ad=1.32 pd=8.33 as=1.32 ps=8.33 w=8 l=0.5
X9 a_n2982_8322.t29 a_n2982_13878.t73 a_n9628_8799.t24 vdd.t193 sky130_fd_pr__pfet_01v8 ad=1.485 pd=9.33 as=1.485 ps=9.33 w=9 l=0.5
X10 CSoutput.t215 a_n9628_8799.t51 vdd.t231 vdd.t51 sky130_fd_pr__pfet_01v8 ad=1.32 pd=8.33 as=1.32 ps=8.33 w=8 l=0.5
X11 vdd.t118 a_n9628_8799.t52 CSoutput.t162 vdd.t69 sky130_fd_pr__pfet_01v8 ad=1.32 pd=8.33 as=1.32 ps=8.33 w=8 l=0.5
X12 gnd.t123 gnd.t121 gnd.t122 gnd.t53 sky130_fd_pr__nfet_01v8 ad=2.73 pd=14.78 as=0 ps=0 w=7 l=0.5
X13 output.t15 CSoutput.t216 vdd.t6 gnd.t2 sky130_fd_pr__nfet_01v8 ad=1.95 pd=10.78 as=0.825 ps=5.33 w=5 l=1
X14 CSoutput.t163 a_n9628_8799.t53 vdd.t119 vdd.t116 sky130_fd_pr__pfet_01v8 ad=1.32 pd=8.33 as=1.32 ps=8.33 w=8 l=0.5
X15 CSoutput.t109 commonsourceibias.t68 gnd.t292 gnd.t170 sky130_fd_pr__nfet_01v8 ad=1.155 pd=7.33 as=1.155 ps=7.33 w=7 l=1
X16 gnd.t120 gnd.t118 gnd.t119 gnd.t46 sky130_fd_pr__nfet_01v8 ad=2.73 pd=14.78 as=0 ps=0 w=7 l=0.5
X17 gnd.t117 gnd.t116 plus.t4 gnd.t53 sky130_fd_pr__nfet_01v8 ad=0.165 pd=1.33 as=0.165 ps=1.33 w=1 l=0.5
X18 gnd.t291 commonsourceibias.t69 CSoutput.t108 gnd.t154 sky130_fd_pr__nfet_01v8 ad=1.155 pd=7.33 as=1.155 ps=7.33 w=7 l=1
X19 vdd.t7 CSoutput.t217 output.t14 gnd.t3 sky130_fd_pr__nfet_01v8 ad=0.825 pd=5.33 as=0.825 ps=5.33 w=5 l=1
X20 CSoutput.t107 commonsourceibias.t70 gnd.t290 gnd.t216 sky130_fd_pr__nfet_01v8 ad=1.155 pd=7.33 as=1.155 ps=7.33 w=7 l=1
X21 a_n9628_8799.t47 plus.t5 a_n2903_n3924.t33 gnd.t345 sky130_fd_pr__nfet_01v8 ad=1.155 pd=7.33 as=1.155 ps=7.33 w=7 l=0.5
X22 gnd.t289 commonsourceibias.t71 CSoutput.t106 gnd.t167 sky130_fd_pr__nfet_01v8 ad=2.73 pd=14.78 as=1.155 ps=7.33 w=7 l=1
X23 vdd.t70 a_n9628_8799.t54 CSoutput.t128 vdd.t69 sky130_fd_pr__pfet_01v8 ad=1.32 pd=8.33 as=1.32 ps=8.33 w=8 l=0.5
X24 vdd.t71 a_n9628_8799.t55 CSoutput.t129 vdd.t13 sky130_fd_pr__pfet_01v8 ad=3.12 pd=16.78 as=1.32 ps=8.33 w=8 l=0.5
X25 CSoutput.t105 commonsourceibias.t72 gnd.t288 gnd.t216 sky130_fd_pr__nfet_01v8 ad=1.155 pd=7.33 as=1.155 ps=7.33 w=7 l=1
X26 minus.t4 gnd.t113 gnd.t115 gnd.t114 sky130_fd_pr__nfet_01v8 ad=0.165 pd=1.33 as=0.165 ps=1.33 w=1 l=0.5
X27 CSoutput.t104 commonsourceibias.t73 gnd.t287 gnd.t231 sky130_fd_pr__nfet_01v8 ad=1.155 pd=7.33 as=1.155 ps=7.33 w=7 l=1
X28 gnd.t286 commonsourceibias.t74 CSoutput.t103 gnd.t201 sky130_fd_pr__nfet_01v8 ad=2.73 pd=14.78 as=1.155 ps=7.33 w=7 l=1
X29 commonsourceibias.t51 commonsourceibias.t50 gnd.t283 gnd.t170 sky130_fd_pr__nfet_01v8 ad=1.155 pd=7.33 as=1.155 ps=7.33 w=7 l=1
X30 CSoutput.t136 a_n9628_8799.t56 vdd.t81 vdd.t67 sky130_fd_pr__pfet_01v8 ad=1.32 pd=8.33 as=1.32 ps=8.33 w=8 l=0.5
X31 CSoutput.t102 commonsourceibias.t75 gnd.t285 gnd.t137 sky130_fd_pr__nfet_01v8 ad=1.155 pd=7.33 as=1.155 ps=7.33 w=7 l=1
X32 a_n9628_8799.t23 a_n2982_13878.t74 a_n2982_8322.t28 vdd.t179 sky130_fd_pr__pfet_01v8 ad=1.485 pd=9.33 as=1.485 ps=9.33 w=9 l=0.5
X33 vdd.t82 a_n9628_8799.t57 CSoutput.t137 vdd.t27 sky130_fd_pr__pfet_01v8 ad=1.32 pd=8.33 as=1.32 ps=8.33 w=8 l=0.5
X34 vdd.t36 a_n9628_8799.t58 CSoutput.t16 vdd.t2 sky130_fd_pr__pfet_01v8 ad=1.32 pd=8.33 as=1.32 ps=8.33 w=8 l=0.5
X35 CSoutput.t17 a_n9628_8799.t59 vdd.t38 vdd.t37 sky130_fd_pr__pfet_01v8 ad=1.32 pd=8.33 as=1.32 ps=8.33 w=8 l=0.5
X36 a_n9628_8799.t30 a_n2982_13878.t75 a_n2982_8322.t27 vdd.t142 sky130_fd_pr__pfet_01v8 ad=1.485 pd=9.33 as=3.51 ps=18.78 w=9 l=0.5
X37 CSoutput.t101 commonsourceibias.t76 gnd.t284 gnd.t227 sky130_fd_pr__nfet_01v8 ad=1.155 pd=7.33 as=1.155 ps=7.33 w=7 l=1
X38 gnd.t282 commonsourceibias.t77 CSoutput.t100 gnd.t209 sky130_fd_pr__nfet_01v8 ad=1.155 pd=7.33 as=1.155 ps=7.33 w=7 l=1
X39 gnd.t112 gnd.t110 gnd.t111 gnd.t32 sky130_fd_pr__nfet_01v8 ad=2.73 pd=14.78 as=0 ps=0 w=7 l=1
X40 a_n9628_8799.t6 plus.t6 a_n2903_n3924.t32 gnd.t309 sky130_fd_pr__nfet_01v8 ad=1.155 pd=7.33 as=1.155 ps=7.33 w=7 l=0.5
X41 CSoutput.t99 commonsourceibias.t78 gnd.t281 gnd.t178 sky130_fd_pr__nfet_01v8 ad=1.155 pd=7.33 as=1.155 ps=7.33 w=7 l=1
X42 CSoutput.t98 commonsourceibias.t79 gnd.t280 gnd.t189 sky130_fd_pr__nfet_01v8 ad=1.155 pd=7.33 as=1.155 ps=7.33 w=7 l=1
X43 gnd.t109 gnd.t107 gnd.t108 gnd.t28 sky130_fd_pr__nfet_01v8 ad=2.73 pd=14.78 as=0 ps=0 w=7 l=1
X44 CSoutput.t97 commonsourceibias.t80 gnd.t279 gnd.t203 sky130_fd_pr__nfet_01v8 ad=1.155 pd=7.33 as=1.155 ps=7.33 w=7 l=1
X45 vdd.t8 CSoutput.t218 output.t13 gnd.t4 sky130_fd_pr__nfet_01v8 ad=0.825 pd=5.33 as=1.95 ps=10.78 w=5 l=1
X46 CSoutput.t198 a_n9628_8799.t60 vdd.t214 vdd.t32 sky130_fd_pr__pfet_01v8 ad=1.32 pd=8.33 as=1.32 ps=8.33 w=8 l=0.5
X47 a_n2903_n3924.t50 diffpairibias.t16 gnd.t352 gnd.t351 sky130_fd_pr__nfet_01v8 ad=2.73 pd=14.78 as=2.73 ps=14.78 w=7 l=1
X48 a_n2903_n3924.t2 minus.t5 a_n2982_13878.t1 gnd.t136 sky130_fd_pr__nfet_01v8 ad=1.155 pd=7.33 as=1.155 ps=7.33 w=7 l=0.5
X49 CSoutput.t199 a_n9628_8799.t61 vdd.t215 vdd.t53 sky130_fd_pr__pfet_01v8 ad=1.32 pd=8.33 as=1.32 ps=8.33 w=8 l=0.5
X50 vdd.t26 a_n9628_8799.t62 CSoutput.t10 vdd.t25 sky130_fd_pr__pfet_01v8 ad=1.32 pd=8.33 as=1.32 ps=8.33 w=8 l=0.5
X51 gnd.t278 commonsourceibias.t81 CSoutput.t96 gnd.t175 sky130_fd_pr__nfet_01v8 ad=1.155 pd=7.33 as=1.155 ps=7.33 w=7 l=1
X52 a_n2903_n3924.t31 plus.t7 a_n9628_8799.t11 gnd.t320 sky130_fd_pr__nfet_01v8 ad=1.155 pd=7.33 as=1.155 ps=7.33 w=7 l=0.5
X53 vdd.t28 a_n9628_8799.t63 CSoutput.t11 vdd.t27 sky130_fd_pr__pfet_01v8 ad=1.32 pd=8.33 as=1.32 ps=8.33 w=8 l=0.5
X54 CSoutput.t95 commonsourceibias.t82 gnd.t277 gnd.t158 sky130_fd_pr__nfet_01v8 ad=1.155 pd=7.33 as=2.73 ps=14.78 w=7 l=1
X55 a_n2982_13878.t13 minus.t6 a_n2903_n3924.t42 gnd.t311 sky130_fd_pr__nfet_01v8 ad=1.155 pd=7.33 as=1.155 ps=7.33 w=7 l=0.5
X56 output.t16 outputibias.t8 gnd.t318 gnd.t317 sky130_fd_pr__nfet_01v8 ad=2.34 pd=12.78 as=2.34 ps=12.78 w=6 l=2
X57 gnd.t276 commonsourceibias.t48 commonsourceibias.t49 gnd.t172 sky130_fd_pr__nfet_01v8 ad=1.155 pd=7.33 as=1.155 ps=7.33 w=7 l=1
X58 CSoutput.t94 commonsourceibias.t83 gnd.t275 gnd.t203 sky130_fd_pr__nfet_01v8 ad=1.155 pd=7.33 as=1.155 ps=7.33 w=7 l=1
X59 CSoutput.t219 a_n2982_8322.t5 sky130_fd_pr__cap_mim_m3_1 l=12 w=12
X60 a_n2903_n3924.t30 plus.t8 a_n9628_8799.t13 gnd.t329 sky130_fd_pr__nfet_01v8 ad=1.155 pd=7.33 as=1.155 ps=7.33 w=7 l=0.5
X61 vdd.t307 vdd.t305 vdd.t306 vdd.t296 sky130_fd_pr__pfet_01v8 ad=3.12 pd=16.78 as=0 ps=0 w=8 l=0.5
X62 a_n2903_n3924.t49 minus.t7 a_n2982_13878.t19 gnd.t321 sky130_fd_pr__nfet_01v8 ad=1.155 pd=7.33 as=1.155 ps=7.33 w=7 l=0.5
X63 gnd.t274 commonsourceibias.t84 CSoutput.t93 gnd.t223 sky130_fd_pr__nfet_01v8 ad=1.155 pd=7.33 as=1.155 ps=7.33 w=7 l=1
X64 vdd.t115 a_n9628_8799.t64 CSoutput.t160 vdd.t114 sky130_fd_pr__pfet_01v8 ad=1.32 pd=8.33 as=1.32 ps=8.33 w=8 l=0.5
X65 vdd.t39 CSoutput.t220 output.t12 gnd.t130 sky130_fd_pr__nfet_01v8 ad=0.825 pd=5.33 as=0.825 ps=5.33 w=5 l=1
X66 a_n2804_13878.t28 a_n2982_13878.t54 a_n2982_13878.t55 vdd.t150 sky130_fd_pr__pfet_01v8 ad=1.485 pd=9.33 as=1.485 ps=9.33 w=9 l=0.5
X67 CSoutput.t92 commonsourceibias.t85 gnd.t273 gnd.t186 sky130_fd_pr__nfet_01v8 ad=1.155 pd=7.33 as=1.155 ps=7.33 w=7 l=1
X68 gnd.t272 commonsourceibias.t86 CSoutput.t91 gnd.t223 sky130_fd_pr__nfet_01v8 ad=1.155 pd=7.33 as=1.155 ps=7.33 w=7 l=1
X69 output.t11 CSoutput.t221 vdd.t40 gnd.t131 sky130_fd_pr__nfet_01v8 ad=0.825 pd=5.33 as=0.825 ps=5.33 w=5 l=1
X70 a_n2982_13878.t57 a_n2982_13878.t56 a_n2804_13878.t27 vdd.t163 sky130_fd_pr__pfet_01v8 ad=1.485 pd=9.33 as=1.485 ps=9.33 w=9 l=0.5
X71 CSoutput.t90 commonsourceibias.t87 gnd.t271 gnd.t156 sky130_fd_pr__nfet_01v8 ad=1.155 pd=7.33 as=1.155 ps=7.33 w=7 l=1
X72 vdd.t304 vdd.t302 vdd.t303 vdd.t296 sky130_fd_pr__pfet_01v8 ad=3.12 pd=16.78 as=0 ps=0 w=8 l=0.5
X73 gnd.t270 commonsourceibias.t88 CSoutput.t89 gnd.t218 sky130_fd_pr__nfet_01v8 ad=1.155 pd=7.33 as=1.155 ps=7.33 w=7 l=1
X74 CSoutput.t161 a_n9628_8799.t65 vdd.t117 vdd.t116 sky130_fd_pr__pfet_01v8 ad=1.32 pd=8.33 as=1.32 ps=8.33 w=8 l=0.5
X75 vdd.t301 vdd.t299 vdd.t300 vdd.t278 sky130_fd_pr__pfet_01v8 ad=3.51 pd=18.78 as=0 ps=0 w=9 l=0.5
X76 gnd.t269 commonsourceibias.t60 commonsourceibias.t61 gnd.t147 sky130_fd_pr__nfet_01v8 ad=1.155 pd=7.33 as=1.155 ps=7.33 w=7 l=1
X77 a_n2903_n3924.t9 minus.t8 a_n2982_13878.t5 gnd.t306 sky130_fd_pr__nfet_01v8 ad=1.155 pd=7.33 as=1.155 ps=7.33 w=7 l=0.5
X78 vdd.t137 a_n9628_8799.t66 CSoutput.t178 vdd.t69 sky130_fd_pr__pfet_01v8 ad=1.32 pd=8.33 as=1.32 ps=8.33 w=8 l=0.5
X79 CSoutput.t88 commonsourceibias.t89 gnd.t268 gnd.t216 sky130_fd_pr__nfet_01v8 ad=1.155 pd=7.33 as=1.155 ps=7.33 w=7 l=1
X80 vdd.t138 a_n9628_8799.t67 CSoutput.t179 vdd.t13 sky130_fd_pr__pfet_01v8 ad=3.12 pd=16.78 as=1.32 ps=8.33 w=8 l=0.5
X81 gnd.t106 gnd.t103 gnd.t105 gnd.t104 sky130_fd_pr__nfet_01v8 ad=1.95 pd=10.78 as=0 ps=0 w=5 l=1
X82 gnd.t102 gnd.t100 gnd.t101 gnd.t32 sky130_fd_pr__nfet_01v8 ad=2.73 pd=14.78 as=0 ps=0 w=7 l=1
X83 CSoutput.t87 commonsourceibias.t90 gnd.t267 gnd.t186 sky130_fd_pr__nfet_01v8 ad=1.155 pd=7.33 as=1.155 ps=7.33 w=7 l=1
X84 diffpairibias.t15 diffpairibias.t14 gnd.t358 gnd.t357 sky130_fd_pr__nfet_01v8 ad=2.73 pd=14.78 as=2.73 ps=14.78 w=7 l=1
X85 CSoutput.t172 a_n9628_8799.t68 vdd.t130 vdd.t67 sky130_fd_pr__pfet_01v8 ad=1.32 pd=8.33 as=1.32 ps=8.33 w=8 l=0.5
X86 a_n2982_13878.t59 a_n2982_13878.t58 a_n2804_13878.t26 vdd.t178 sky130_fd_pr__pfet_01v8 ad=1.485 pd=9.33 as=1.485 ps=9.33 w=9 l=0.5
X87 CSoutput.t86 commonsourceibias.t91 gnd.t266 gnd.t158 sky130_fd_pr__nfet_01v8 ad=1.155 pd=7.33 as=2.73 ps=14.78 w=7 l=1
X88 CSoutput.t173 a_n9628_8799.t69 vdd.t132 vdd.t131 sky130_fd_pr__pfet_01v8 ad=1.32 pd=8.33 as=1.32 ps=8.33 w=8 l=0.5
X89 CSoutput.t85 commonsourceibias.t92 gnd.t265 gnd.t197 sky130_fd_pr__nfet_01v8 ad=1.155 pd=7.33 as=1.155 ps=7.33 w=7 l=1
X90 gnd.t264 commonsourceibias.t93 CSoutput.t84 gnd.t143 sky130_fd_pr__nfet_01v8 ad=1.155 pd=7.33 as=1.155 ps=7.33 w=7 l=1
X91 a_n9628_8799.t29 a_n2982_13878.t76 a_n2982_8322.t26 vdd.t173 sky130_fd_pr__pfet_01v8 ad=1.485 pd=9.33 as=1.485 ps=9.33 w=9 l=0.5
X92 gnd.t263 commonsourceibias.t94 CSoutput.t83 gnd.t181 sky130_fd_pr__nfet_01v8 ad=1.155 pd=7.33 as=1.155 ps=7.33 w=7 l=1
X93 vdd.t212 a_n9628_8799.t70 CSoutput.t196 vdd.t64 sky130_fd_pr__pfet_01v8 ad=1.32 pd=8.33 as=1.32 ps=8.33 w=8 l=0.5
X94 CSoutput.t197 a_n9628_8799.t71 vdd.t213 vdd.t91 sky130_fd_pr__pfet_01v8 ad=1.32 pd=8.33 as=1.32 ps=8.33 w=8 l=0.5
X95 gnd.t262 commonsourceibias.t95 CSoutput.t82 gnd.t152 sky130_fd_pr__nfet_01v8 ad=1.155 pd=7.33 as=1.155 ps=7.33 w=7 l=1
X96 CSoutput.t222 a_n2982_8322.t4 sky130_fd_pr__cap_mim_m3_1 l=12 w=12
X97 a_n2982_13878.t0 minus.t9 a_n2903_n3924.t1 gnd.t135 sky130_fd_pr__nfet_01v8 ad=1.155 pd=7.33 as=2.73 ps=14.78 w=7 l=0.5
X98 a_n2982_13878.t61 a_n2982_13878.t60 a_n2804_13878.t25 vdd.t194 sky130_fd_pr__pfet_01v8 ad=1.485 pd=9.33 as=1.485 ps=9.33 w=9 l=0.5
X99 gnd.t99 gnd.t97 plus.t3 gnd.t98 sky130_fd_pr__nfet_01v8 ad=0.165 pd=1.33 as=0.39 ps=2.78 w=1 l=0.5
X100 vdd.t228 a_n9628_8799.t72 CSoutput.t212 vdd.t123 sky130_fd_pr__pfet_01v8 ad=1.32 pd=8.33 as=1.32 ps=8.33 w=8 l=0.5
X101 vdd.t229 a_n9628_8799.t73 CSoutput.t213 vdd.t2 sky130_fd_pr__pfet_01v8 ad=1.32 pd=8.33 as=1.32 ps=8.33 w=8 l=0.5
X102 a_n9628_8799.t26 a_n2982_13878.t77 a_n2982_8322.t25 vdd.t171 sky130_fd_pr__pfet_01v8 ad=1.485 pd=9.33 as=1.485 ps=9.33 w=9 l=0.5
X103 CSoutput.t158 a_n9628_8799.t74 vdd.t112 vdd.t37 sky130_fd_pr__pfet_01v8 ad=1.32 pd=8.33 as=1.32 ps=8.33 w=8 l=0.5
X104 CSoutput.t81 commonsourceibias.t96 gnd.t261 gnd.t197 sky130_fd_pr__nfet_01v8 ad=1.155 pd=7.33 as=1.155 ps=7.33 w=7 l=1
X105 diffpairibias.t13 diffpairibias.t12 gnd.t366 gnd.t365 sky130_fd_pr__nfet_01v8 ad=2.73 pd=14.78 as=2.73 ps=14.78 w=7 l=1
X106 CSoutput.t159 a_n9628_8799.t75 vdd.t113 vdd.t109 sky130_fd_pr__pfet_01v8 ad=1.32 pd=8.33 as=1.32 ps=8.33 w=8 l=0.5
X107 gnd.t253 commonsourceibias.t2 commonsourceibias.t3 gnd.t184 sky130_fd_pr__nfet_01v8 ad=1.155 pd=7.33 as=1.155 ps=7.33 w=7 l=1
X108 gnd.t254 commonsourceibias.t97 CSoutput.t80 gnd.t201 sky130_fd_pr__nfet_01v8 ad=2.73 pd=14.78 as=1.155 ps=7.33 w=7 l=1
X109 a_n9628_8799.t25 a_n2982_13878.t78 a_n2982_8322.t24 vdd.t186 sky130_fd_pr__pfet_01v8 ad=1.485 pd=9.33 as=1.485 ps=9.33 w=9 l=0.5
X110 CSoutput.t79 commonsourceibias.t98 gnd.t260 gnd.t156 sky130_fd_pr__nfet_01v8 ad=1.155 pd=7.33 as=1.155 ps=7.33 w=7 l=1
X111 gnd.t259 commonsourceibias.t99 CSoutput.t78 gnd.t184 sky130_fd_pr__nfet_01v8 ad=1.155 pd=7.33 as=1.155 ps=7.33 w=7 l=1
X112 gnd.t96 gnd.t94 gnd.t95 gnd.t24 sky130_fd_pr__nfet_01v8 ad=2.73 pd=14.78 as=0 ps=0 w=7 l=1
X113 CSoutput.t77 commonsourceibias.t100 gnd.t258 gnd.t231 sky130_fd_pr__nfet_01v8 ad=1.155 pd=7.33 as=1.155 ps=7.33 w=7 l=1
X114 CSoutput.t76 commonsourceibias.t101 gnd.t255 gnd.t165 sky130_fd_pr__nfet_01v8 ad=1.155 pd=7.33 as=1.155 ps=7.33 w=7 l=1
X115 a_n2982_8322.t23 a_n2982_13878.t79 a_n9628_8799.t22 vdd.t194 sky130_fd_pr__pfet_01v8 ad=1.485 pd=9.33 as=1.485 ps=9.33 w=9 l=0.5
X116 gnd.t257 commonsourceibias.t102 CSoutput.t75 gnd.t209 sky130_fd_pr__nfet_01v8 ad=1.155 pd=7.33 as=1.155 ps=7.33 w=7 l=1
X117 CSoutput.t126 a_n9628_8799.t76 vdd.t66 vdd.t55 sky130_fd_pr__pfet_01v8 ad=1.32 pd=8.33 as=1.32 ps=8.33 w=8 l=0.5
X118 plus.t2 gnd.t91 gnd.t93 gnd.t92 sky130_fd_pr__nfet_01v8 ad=0.165 pd=1.33 as=0.165 ps=1.33 w=1 l=0.5
X119 gnd.t256 commonsourceibias.t62 commonsourceibias.t63 gnd.t162 sky130_fd_pr__nfet_01v8 ad=1.155 pd=7.33 as=1.155 ps=7.33 w=7 l=1
X120 output.t10 CSoutput.t223 vdd.t41 gnd.t132 sky130_fd_pr__nfet_01v8 ad=0.825 pd=5.33 as=0.825 ps=5.33 w=5 l=1
X121 vdd.t47 CSoutput.t224 output.t9 gnd.t301 sky130_fd_pr__nfet_01v8 ad=0.825 pd=5.33 as=0.825 ps=5.33 w=5 l=1
X122 a_n9628_8799.t0 plus.t9 a_n2903_n3924.t29 gnd.t128 sky130_fd_pr__nfet_01v8 ad=1.155 pd=7.33 as=1.155 ps=7.33 w=7 l=0.5
X123 vdd.t298 vdd.t295 vdd.t297 vdd.t296 sky130_fd_pr__pfet_01v8 ad=3.12 pd=16.78 as=0 ps=0 w=8 l=0.5
X124 gnd.t252 commonsourceibias.t103 CSoutput.t74 gnd.t184 sky130_fd_pr__nfet_01v8 ad=1.155 pd=7.33 as=1.155 ps=7.33 w=7 l=1
X125 a_n2903_n3924.t0 diffpairibias.t17 gnd.t127 gnd.t126 sky130_fd_pr__nfet_01v8 ad=2.73 pd=14.78 as=2.73 ps=14.78 w=7 l=1
X126 CSoutput.t127 a_n9628_8799.t77 vdd.t68 vdd.t67 sky130_fd_pr__pfet_01v8 ad=1.32 pd=8.33 as=1.32 ps=8.33 w=8 l=0.5
X127 vdd.t79 a_n9628_8799.t78 CSoutput.t134 vdd.t15 sky130_fd_pr__pfet_01v8 ad=1.32 pd=8.33 as=1.32 ps=8.33 w=8 l=0.5
X128 gnd.t90 gnd.t88 gnd.t89 gnd.t20 sky130_fd_pr__nfet_01v8 ad=2.73 pd=14.78 as=0 ps=0 w=7 l=1
X129 a_n2903_n3924.t48 minus.t10 a_n2982_13878.t18 gnd.t129 sky130_fd_pr__nfet_01v8 ad=1.155 pd=7.33 as=1.155 ps=7.33 w=7 l=0.5
X130 vdd.t80 a_n9628_8799.t79 CSoutput.t135 vdd.t29 sky130_fd_pr__pfet_01v8 ad=1.32 pd=8.33 as=1.32 ps=8.33 w=8 l=0.5
X131 a_n2982_13878.t63 a_n2982_13878.t62 a_n2804_13878.t24 vdd.t193 sky130_fd_pr__pfet_01v8 ad=1.485 pd=9.33 as=1.485 ps=9.33 w=9 l=0.5
X132 vdd.t210 a_n9628_8799.t80 CSoutput.t194 vdd.t17 sky130_fd_pr__pfet_01v8 ad=1.32 pd=8.33 as=1.32 ps=8.33 w=8 l=0.5
X133 gnd.t251 commonsourceibias.t104 CSoutput.t73 gnd.t175 sky130_fd_pr__nfet_01v8 ad=1.155 pd=7.33 as=1.155 ps=7.33 w=7 l=1
X134 a_n9628_8799.t21 a_n2982_13878.t80 a_n2982_8322.t22 vdd.t182 sky130_fd_pr__pfet_01v8 ad=1.485 pd=9.33 as=1.485 ps=9.33 w=9 l=0.5
X135 a_n2982_13878.t51 a_n2982_13878.t50 a_n2804_13878.t23 vdd.t145 sky130_fd_pr__pfet_01v8 ad=3.51 pd=18.78 as=1.485 ps=9.33 w=9 l=0.5
X136 a_n2982_13878.t11 minus.t11 a_n2903_n3924.t40 gnd.t133 sky130_fd_pr__nfet_01v8 ad=1.155 pd=7.33 as=1.155 ps=7.33 w=7 l=0.5
X137 gnd.t87 gnd.t85 gnd.t86 gnd.t20 sky130_fd_pr__nfet_01v8 ad=2.73 pd=14.78 as=0 ps=0 w=7 l=1
X138 vdd.t48 CSoutput.t225 output.t8 gnd.t302 sky130_fd_pr__nfet_01v8 ad=0.825 pd=5.33 as=0.825 ps=5.33 w=5 l=1
X139 a_n2903_n3924.t28 plus.t10 a_n9628_8799.t7 gnd.t310 sky130_fd_pr__nfet_01v8 ad=1.155 pd=7.33 as=1.155 ps=7.33 w=7 l=0.5
X140 CSoutput.t72 commonsourceibias.t105 gnd.t250 gnd.t189 sky130_fd_pr__nfet_01v8 ad=1.155 pd=7.33 as=1.155 ps=7.33 w=7 l=1
X141 CSoutput.t195 a_n9628_8799.t81 vdd.t211 vdd.t131 sky130_fd_pr__pfet_01v8 ad=1.32 pd=8.33 as=1.32 ps=8.33 w=8 l=0.5
X142 vdd.t22 a_n9628_8799.t82 CSoutput.t8 vdd.t21 sky130_fd_pr__pfet_01v8 ad=3.12 pd=16.78 as=1.32 ps=8.33 w=8 l=0.5
X143 gnd.t249 commonsourceibias.t106 CSoutput.t71 gnd.t149 sky130_fd_pr__nfet_01v8 ad=1.155 pd=7.33 as=1.155 ps=7.33 w=7 l=1
X144 CSoutput.t9 a_n9628_8799.t83 vdd.t24 vdd.t23 sky130_fd_pr__pfet_01v8 ad=1.32 pd=8.33 as=3.12 ps=16.78 w=8 l=0.5
X145 a_n2903_n3924.t53 minus.t12 a_n2982_13878.t69 gnd.t350 sky130_fd_pr__nfet_01v8 ad=2.73 pd=14.78 as=1.155 ps=7.33 w=7 l=0.5
X146 vdd.t294 vdd.t292 vdd.t293 vdd.t285 sky130_fd_pr__pfet_01v8 ad=3.51 pd=18.78 as=0 ps=0 w=9 l=0.5
X147 gnd.t248 commonsourceibias.t0 commonsourceibias.t1 gnd.t154 sky130_fd_pr__nfet_01v8 ad=1.155 pd=7.33 as=1.155 ps=7.33 w=7 l=1
X148 output.t7 CSoutput.t226 vdd.t49 gnd.t303 sky130_fd_pr__nfet_01v8 ad=0.825 pd=5.33 as=0.825 ps=5.33 w=5 l=1
X149 gnd.t247 commonsourceibias.t107 CSoutput.t70 gnd.t172 sky130_fd_pr__nfet_01v8 ad=1.155 pd=7.33 as=1.155 ps=7.33 w=7 l=1
X150 CSoutput.t156 a_n9628_8799.t84 vdd.t110 vdd.t109 sky130_fd_pr__pfet_01v8 ad=1.32 pd=8.33 as=1.32 ps=8.33 w=8 l=0.5
X151 vdd.t291 vdd.t288 vdd.t290 vdd.t289 sky130_fd_pr__pfet_01v8 ad=3.51 pd=18.78 as=0 ps=0 w=9 l=0.5
X152 a_n2804_13878.t22 a_n2982_13878.t46 a_n2982_13878.t47 vdd.t155 sky130_fd_pr__pfet_01v8 ad=1.485 pd=9.33 as=3.51 ps=18.78 w=9 l=0.5
X153 CSoutput.t157 a_n9628_8799.t85 vdd.t111 vdd.t74 sky130_fd_pr__pfet_01v8 ad=1.32 pd=8.33 as=1.32 ps=8.33 w=8 l=0.5
X154 vdd.t135 a_n9628_8799.t86 CSoutput.t176 vdd.t29 sky130_fd_pr__pfet_01v8 ad=1.32 pd=8.33 as=1.32 ps=8.33 w=8 l=0.5
X155 vdd.t192 a_n2982_13878.t81 a_n2982_8322.t37 vdd.t191 sky130_fd_pr__pfet_01v8 ad=1.485 pd=9.33 as=1.485 ps=9.33 w=9 l=0.5
X156 a_n2982_13878.t23 a_n2982_13878.t22 a_n2804_13878.t21 vdd.t153 sky130_fd_pr__pfet_01v8 ad=1.485 pd=9.33 as=1.485 ps=9.33 w=9 l=0.5
X157 a_n2982_8322.t36 a_n2982_13878.t82 vdd.t190 vdd.t189 sky130_fd_pr__pfet_01v8 ad=1.485 pd=9.33 as=1.485 ps=9.33 w=9 l=0.5
X158 gnd.t246 commonsourceibias.t108 CSoutput.t69 gnd.t201 sky130_fd_pr__nfet_01v8 ad=2.73 pd=14.78 as=1.155 ps=7.33 w=7 l=1
X159 a_n2903_n3924.t51 diffpairibias.t18 gnd.t356 gnd.t355 sky130_fd_pr__nfet_01v8 ad=2.73 pd=14.78 as=2.73 ps=14.78 w=7 l=1
X160 CSoutput.t177 a_n9628_8799.t87 vdd.t136 vdd.t55 sky130_fd_pr__pfet_01v8 ad=1.32 pd=8.33 as=1.32 ps=8.33 w=8 l=0.5
X161 output.t6 CSoutput.t227 vdd.t50 gnd.t304 sky130_fd_pr__nfet_01v8 ad=0.825 pd=5.33 as=0.825 ps=5.33 w=5 l=1
X162 gnd.t245 commonsourceibias.t109 CSoutput.t68 gnd.t223 sky130_fd_pr__nfet_01v8 ad=1.155 pd=7.33 as=1.155 ps=7.33 w=7 l=1
X163 a_n2982_13878.t4 minus.t13 a_n2903_n3924.t8 gnd.t324 sky130_fd_pr__nfet_01v8 ad=1.155 pd=7.33 as=1.155 ps=7.33 w=7 l=0.5
X164 gnd.t244 commonsourceibias.t16 commonsourceibias.t17 gnd.t143 sky130_fd_pr__nfet_01v8 ad=1.155 pd=7.33 as=1.155 ps=7.33 w=7 l=1
X165 CSoutput.t67 commonsourceibias.t110 gnd.t243 gnd.t231 sky130_fd_pr__nfet_01v8 ad=1.155 pd=7.33 as=1.155 ps=7.33 w=7 l=1
X166 gnd.t242 commonsourceibias.t111 CSoutput.t66 gnd.t162 sky130_fd_pr__nfet_01v8 ad=1.155 pd=7.33 as=1.155 ps=7.33 w=7 l=1
X167 CSoutput.t65 commonsourceibias.t112 gnd.t241 gnd.t139 sky130_fd_pr__nfet_01v8 ad=1.155 pd=7.33 as=2.73 ps=14.78 w=7 l=1
X168 CSoutput.t64 commonsourceibias.t113 gnd.t240 gnd.t227 sky130_fd_pr__nfet_01v8 ad=1.155 pd=7.33 as=1.155 ps=7.33 w=7 l=1
X169 a_n2903_n3924.t27 plus.t11 a_n9628_8799.t4 gnd.t305 sky130_fd_pr__nfet_01v8 ad=1.155 pd=7.33 as=1.155 ps=7.33 w=7 l=0.5
X170 vdd.t188 a_n2982_13878.t83 a_n2804_13878.t2 vdd.t187 sky130_fd_pr__pfet_01v8 ad=1.485 pd=9.33 as=1.485 ps=9.33 w=9 l=0.5
X171 gnd.t84 gnd.t82 minus.t3 gnd.t83 sky130_fd_pr__nfet_01v8 ad=0.165 pd=1.33 as=0.39 ps=2.78 w=1 l=0.5
X172 vdd.t287 vdd.t284 vdd.t286 vdd.t285 sky130_fd_pr__pfet_01v8 ad=3.51 pd=18.78 as=0 ps=0 w=9 l=0.5
X173 gnd.t81 gnd.t79 gnd.t80 gnd.t20 sky130_fd_pr__nfet_01v8 ad=2.73 pd=14.78 as=0 ps=0 w=7 l=1
X174 a_n2804_13878.t20 a_n2982_13878.t32 a_n2982_13878.t33 vdd.t186 sky130_fd_pr__pfet_01v8 ad=1.485 pd=9.33 as=1.485 ps=9.33 w=9 l=0.5
X175 vdd.t30 a_n9628_8799.t88 CSoutput.t12 vdd.t29 sky130_fd_pr__pfet_01v8 ad=1.32 pd=8.33 as=1.32 ps=8.33 w=8 l=0.5
X176 vdd.t31 a_n9628_8799.t89 CSoutput.t13 vdd.t17 sky130_fd_pr__pfet_01v8 ad=1.32 pd=8.33 as=1.32 ps=8.33 w=8 l=0.5
X177 a_n2982_8322.t21 a_n2982_13878.t84 a_n9628_8799.t32 vdd.t172 sky130_fd_pr__pfet_01v8 ad=1.485 pd=9.33 as=1.485 ps=9.33 w=9 l=0.5
X178 a_n9628_8799.t17 plus.t12 a_n2903_n3924.t26 gnd.t335 sky130_fd_pr__nfet_01v8 ad=1.155 pd=7.33 as=2.73 ps=14.78 w=7 l=0.5
X179 vdd.t283 vdd.t281 vdd.t282 vdd.t258 sky130_fd_pr__pfet_01v8 ad=3.12 pd=16.78 as=0 ps=0 w=8 l=0.5
X180 vdd.t280 vdd.t277 vdd.t279 vdd.t278 sky130_fd_pr__pfet_01v8 ad=3.51 pd=18.78 as=0 ps=0 w=9 l=0.5
X181 a_n2982_8322.t35 a_n2982_13878.t85 vdd.t185 vdd.t184 sky130_fd_pr__pfet_01v8 ad=3.51 pd=18.78 as=1.485 ps=9.33 w=9 l=0.5
X182 a_n9628_8799.t31 a_n2982_13878.t86 a_n2982_8322.t20 vdd.t152 sky130_fd_pr__pfet_01v8 ad=1.485 pd=9.33 as=1.485 ps=9.33 w=9 l=0.5
X183 a_n2982_13878.t6 minus.t14 a_n2903_n3924.t34 gnd.t327 sky130_fd_pr__nfet_01v8 ad=1.155 pd=7.33 as=1.155 ps=7.33 w=7 l=0.5
X184 CSoutput.t0 a_n9628_8799.t90 vdd.t1 vdd.t0 sky130_fd_pr__pfet_01v8 ad=1.32 pd=8.33 as=1.32 ps=8.33 w=8 l=0.5
X185 diffpairibias.t11 diffpairibias.t10 gnd.t308 gnd.t307 sky130_fd_pr__nfet_01v8 ad=2.73 pd=14.78 as=2.73 ps=14.78 w=7 l=1
X186 vdd.t3 a_n9628_8799.t91 CSoutput.t1 vdd.t2 sky130_fd_pr__pfet_01v8 ad=1.32 pd=8.33 as=1.32 ps=8.33 w=8 l=0.5
X187 a_n2982_13878.t27 a_n2982_13878.t26 a_n2804_13878.t19 vdd.t166 sky130_fd_pr__pfet_01v8 ad=1.485 pd=9.33 as=1.485 ps=9.33 w=9 l=0.5
X188 CSoutput.t63 commonsourceibias.t114 gnd.t239 gnd.t192 sky130_fd_pr__nfet_01v8 ad=1.155 pd=7.33 as=1.155 ps=7.33 w=7 l=1
X189 a_n9628_8799.t34 a_n2982_13878.t87 a_n2982_8322.t19 vdd.t183 sky130_fd_pr__pfet_01v8 ad=1.485 pd=9.33 as=1.485 ps=9.33 w=9 l=0.5
X190 CSoutput.t192 a_n9628_8799.t92 vdd.t208 vdd.t131 sky130_fd_pr__pfet_01v8 ad=1.32 pd=8.33 as=1.32 ps=8.33 w=8 l=0.5
X191 CSoutput.t193 a_n9628_8799.t93 vdd.t209 vdd.t104 sky130_fd_pr__pfet_01v8 ad=1.32 pd=8.33 as=1.32 ps=8.33 w=8 l=0.5
X192 commonsourceibias.t15 commonsourceibias.t14 gnd.t238 gnd.t137 sky130_fd_pr__nfet_01v8 ad=1.155 pd=7.33 as=1.155 ps=7.33 w=7 l=1
X193 gnd.t237 commonsourceibias.t115 CSoutput.t62 gnd.t218 sky130_fd_pr__nfet_01v8 ad=1.155 pd=7.33 as=1.155 ps=7.33 w=7 l=1
X194 a_n2804_13878.t18 a_n2982_13878.t24 a_n2982_13878.t25 vdd.t182 sky130_fd_pr__pfet_01v8 ad=1.485 pd=9.33 as=1.485 ps=9.33 w=9 l=0.5
X195 gnd.t78 gnd.t75 gnd.t77 gnd.t76 sky130_fd_pr__nfet_01v8 ad=1.95 pd=10.78 as=0 ps=0 w=5 l=1
X196 CSoutput.t61 commonsourceibias.t116 gnd.t236 gnd.t189 sky130_fd_pr__nfet_01v8 ad=1.155 pd=7.33 as=1.155 ps=7.33 w=7 l=1
X197 a_n9628_8799.t10 plus.t13 a_n2903_n3924.t25 gnd.t319 sky130_fd_pr__nfet_01v8 ad=1.155 pd=7.33 as=1.155 ps=7.33 w=7 l=0.5
X198 a_n2903_n3924.t35 minus.t15 a_n2982_13878.t7 gnd.t328 sky130_fd_pr__nfet_01v8 ad=1.155 pd=7.33 as=1.155 ps=7.33 w=7 l=0.5
X199 a_n2903_n3924.t38 minus.t16 a_n2982_13878.t9 gnd.t336 sky130_fd_pr__nfet_01v8 ad=2.73 pd=14.78 as=1.155 ps=7.33 w=7 l=0.5
X200 vdd.t276 vdd.t274 vdd.t275 vdd.t237 sky130_fd_pr__pfet_01v8 ad=3.51 pd=18.78 as=0 ps=0 w=9 l=0.5
X201 CSoutput.t210 a_n9628_8799.t94 vdd.t226 vdd.t91 sky130_fd_pr__pfet_01v8 ad=1.32 pd=8.33 as=1.32 ps=8.33 w=8 l=0.5
X202 outputibias.t7 outputibias.t6 gnd.t342 gnd.t341 sky130_fd_pr__nfet_01v8 ad=2.34 pd=12.78 as=2.34 ps=12.78 w=6 l=2
X203 vdd.t83 CSoutput.t228 output.t5 gnd.t325 sky130_fd_pr__nfet_01v8 ad=0.825 pd=5.33 as=0.825 ps=5.33 w=5 l=1
X204 a_n2982_13878.t68 minus.t17 a_n2903_n3924.t52 gnd.t314 sky130_fd_pr__nfet_01v8 ad=1.155 pd=7.33 as=1.155 ps=7.33 w=7 l=0.5
X205 CSoutput.t60 commonsourceibias.t117 gnd.t235 gnd.t186 sky130_fd_pr__nfet_01v8 ad=1.155 pd=7.33 as=1.155 ps=7.33 w=7 l=1
X206 gnd.t74 gnd.t72 gnd.t73 gnd.t28 sky130_fd_pr__nfet_01v8 ad=2.73 pd=14.78 as=0 ps=0 w=7 l=1
X207 vdd.t181 a_n2982_13878.t88 a_n2982_8322.t34 vdd.t180 sky130_fd_pr__pfet_01v8 ad=1.485 pd=9.33 as=3.51 ps=18.78 w=9 l=0.5
X208 a_n2804_13878.t17 a_n2982_13878.t48 a_n2982_13878.t49 vdd.t179 sky130_fd_pr__pfet_01v8 ad=1.485 pd=9.33 as=1.485 ps=9.33 w=9 l=0.5
X209 vdd.t227 a_n9628_8799.t95 CSoutput.t211 vdd.t204 sky130_fd_pr__pfet_01v8 ad=1.32 pd=8.33 as=1.32 ps=8.33 w=8 l=0.5
X210 vdd.t107 a_n9628_8799.t96 CSoutput.t154 vdd.t106 sky130_fd_pr__pfet_01v8 ad=1.32 pd=8.33 as=1.32 ps=8.33 w=8 l=0.5
X211 a_n2982_13878.t21 a_n2982_13878.t20 a_n2804_13878.t16 vdd.t149 sky130_fd_pr__pfet_01v8 ad=1.485 pd=9.33 as=1.485 ps=9.33 w=9 l=0.5
X212 gnd.t234 commonsourceibias.t118 CSoutput.t59 gnd.t181 sky130_fd_pr__nfet_01v8 ad=1.155 pd=7.33 as=1.155 ps=7.33 w=7 l=1
X213 gnd.t233 commonsourceibias.t119 CSoutput.t58 gnd.t209 sky130_fd_pr__nfet_01v8 ad=1.155 pd=7.33 as=1.155 ps=7.33 w=7 l=1
X214 commonsourceibias.t41 commonsourceibias.t40 gnd.t232 gnd.t231 sky130_fd_pr__nfet_01v8 ad=1.155 pd=7.33 as=1.155 ps=7.33 w=7 l=1
X215 outputibias.t5 outputibias.t4 gnd.t347 gnd.t346 sky130_fd_pr__nfet_01v8 ad=2.34 pd=12.78 as=2.34 ps=12.78 w=6 l=2
X216 gnd.t230 commonsourceibias.t120 CSoutput.t57 gnd.t167 sky130_fd_pr__nfet_01v8 ad=2.73 pd=14.78 as=1.155 ps=7.33 w=7 l=1
X217 vdd.t108 a_n9628_8799.t97 CSoutput.t155 vdd.t99 sky130_fd_pr__pfet_01v8 ad=1.32 pd=8.33 as=1.32 ps=8.33 w=8 l=0.5
X218 vdd.t206 a_n9628_8799.t98 CSoutput.t190 vdd.t21 sky130_fd_pr__pfet_01v8 ad=3.12 pd=16.78 as=1.32 ps=8.33 w=8 l=0.5
X219 CSoutput.t191 a_n9628_8799.t99 vdd.t207 vdd.t32 sky130_fd_pr__pfet_01v8 ad=1.32 pd=8.33 as=1.32 ps=8.33 w=8 l=0.5
X220 CSoutput.t56 commonsourceibias.t121 gnd.t229 gnd.t178 sky130_fd_pr__nfet_01v8 ad=1.155 pd=7.33 as=1.155 ps=7.33 w=7 l=1
X221 a_n2903_n3924.t43 diffpairibias.t19 gnd.t344 gnd.t343 sky130_fd_pr__nfet_01v8 ad=2.73 pd=14.78 as=2.73 ps=14.78 w=7 l=1
X222 gnd.t71 gnd.t68 gnd.t70 gnd.t69 sky130_fd_pr__nfet_01v8 ad=2.73 pd=14.78 as=0 ps=0 w=7 l=1
X223 vdd.t273 vdd.t271 vdd.t272 vdd.t245 sky130_fd_pr__pfet_01v8 ad=3.12 pd=16.78 as=0 ps=0 w=8 l=0.5
X224 a_n2903_n3924.t36 diffpairibias.t20 gnd.t332 gnd.t331 sky130_fd_pr__nfet_01v8 ad=2.73 pd=14.78 as=2.73 ps=14.78 w=7 l=1
X225 commonsourceibias.t39 commonsourceibias.t38 gnd.t228 gnd.t227 sky130_fd_pr__nfet_01v8 ad=1.155 pd=7.33 as=1.155 ps=7.33 w=7 l=1
X226 a_n2982_13878.t15 minus.t18 a_n2903_n3924.t45 gnd.t345 sky130_fd_pr__nfet_01v8 ad=1.155 pd=7.33 as=1.155 ps=7.33 w=7 l=0.5
X227 vdd.t224 a_n9628_8799.t100 CSoutput.t208 vdd.t106 sky130_fd_pr__pfet_01v8 ad=1.32 pd=8.33 as=1.32 ps=8.33 w=8 l=0.5
X228 vdd.t225 a_n9628_8799.t101 CSoutput.t209 vdd.t15 sky130_fd_pr__pfet_01v8 ad=1.32 pd=8.33 as=1.32 ps=8.33 w=8 l=0.5
X229 CSoutput.t152 a_n9628_8799.t102 vdd.t103 vdd.t97 sky130_fd_pr__pfet_01v8 ad=1.32 pd=8.33 as=1.32 ps=8.33 w=8 l=0.5
X230 gnd.t67 gnd.t65 gnd.t66 gnd.t32 sky130_fd_pr__nfet_01v8 ad=2.73 pd=14.78 as=0 ps=0 w=7 l=1
X231 gnd.t64 gnd.t62 gnd.t63 gnd.t28 sky130_fd_pr__nfet_01v8 ad=2.73 pd=14.78 as=0 ps=0 w=7 l=1
X232 gnd.t61 gnd.t59 minus.t2 gnd.t60 sky130_fd_pr__nfet_01v8 ad=0.165 pd=1.33 as=0.165 ps=1.33 w=1 l=0.5
X233 vdd.t270 vdd.t268 vdd.t269 vdd.t258 sky130_fd_pr__pfet_01v8 ad=3.12 pd=16.78 as=0 ps=0 w=8 l=0.5
X234 CSoutput.t55 commonsourceibias.t122 gnd.t226 gnd.t192 sky130_fd_pr__nfet_01v8 ad=1.155 pd=7.33 as=1.155 ps=7.33 w=7 l=1
X235 CSoutput.t54 commonsourceibias.t123 gnd.t225 gnd.t165 sky130_fd_pr__nfet_01v8 ad=1.155 pd=7.33 as=1.155 ps=7.33 w=7 l=1
X236 a_n2804_13878.t15 a_n2982_13878.t40 a_n2982_13878.t41 vdd.t154 sky130_fd_pr__pfet_01v8 ad=1.485 pd=9.33 as=1.485 ps=9.33 w=9 l=0.5
X237 CSoutput.t153 a_n9628_8799.t103 vdd.t105 vdd.t104 sky130_fd_pr__pfet_01v8 ad=1.32 pd=8.33 as=1.32 ps=8.33 w=8 l=0.5
X238 a_n2982_8322.t18 a_n2982_13878.t89 a_n9628_8799.t33 vdd.t178 sky130_fd_pr__pfet_01v8 ad=1.485 pd=9.33 as=1.485 ps=9.33 w=9 l=0.5
X239 CSoutput.t142 a_n9628_8799.t104 vdd.t90 vdd.t59 sky130_fd_pr__pfet_01v8 ad=1.32 pd=8.33 as=1.32 ps=8.33 w=8 l=0.5
X240 commonsourceibias.t35 commonsourceibias.t34 gnd.t222 gnd.t203 sky130_fd_pr__nfet_01v8 ad=1.155 pd=7.33 as=1.155 ps=7.33 w=7 l=1
X241 a_n2982_13878.t3 minus.t19 a_n2903_n3924.t6 gnd.t309 sky130_fd_pr__nfet_01v8 ad=1.155 pd=7.33 as=1.155 ps=7.33 w=7 l=0.5
X242 CSoutput.t229 a_n2982_8322.t3 sky130_fd_pr__cap_mim_m3_1 l=12 w=12
X243 gnd.t224 commonsourceibias.t36 commonsourceibias.t37 gnd.t223 sky130_fd_pr__nfet_01v8 ad=1.155 pd=7.33 as=1.155 ps=7.33 w=7 l=1
X244 diffpairibias.t9 diffpairibias.t8 gnd.t334 gnd.t333 sky130_fd_pr__nfet_01v8 ad=2.73 pd=14.78 as=2.73 ps=14.78 w=7 l=1
X245 a_n2804_13878.t4 a_n2982_13878.t90 vdd.t177 vdd.t176 sky130_fd_pr__pfet_01v8 ad=1.485 pd=9.33 as=1.485 ps=9.33 w=9 l=0.5
X246 vdd.t175 a_n2982_13878.t91 a_n2804_13878.t3 vdd.t174 sky130_fd_pr__pfet_01v8 ad=1.485 pd=9.33 as=1.485 ps=9.33 w=9 l=0.5
X247 CSoutput.t53 commonsourceibias.t124 gnd.t221 gnd.t178 sky130_fd_pr__nfet_01v8 ad=1.155 pd=7.33 as=1.155 ps=7.33 w=7 l=1