* NGSPICE file created from opamp.ext - technology: sky130A

.subckt opamp CSoutput output vdd plus minus commonsourceibias outputibias diffpairibias
+ gnd
X0 gnd.t401 commonsourceibias.t32 commonsourceibias.t33 gnd.t300 sky130_fd_pr__nfet_01v8 ad=1.155 pd=7.33 as=1.155 ps=7.33 w=7 l=1
X1 gnd.t400 commonsourceibias.t80 CSoutput.t203 gnd.t229 sky130_fd_pr__nfet_01v8 ad=1.155 pd=7.33 as=1.155 ps=7.33 w=7 l=1
X2 gnd.t396 commonsourceibias.t81 CSoutput.t202 gnd.t257 sky130_fd_pr__nfet_01v8 ad=1.155 pd=7.33 as=1.155 ps=7.33 w=7 l=1
X3 CSoutput.t201 commonsourceibias.t82 gnd.t395 gnd.t265 sky130_fd_pr__nfet_01v8 ad=1.155 pd=7.33 as=1.155 ps=7.33 w=7 l=1
X4 commonsourceibias.t29 commonsourceibias.t28 gnd.t397 gnd.t235 sky130_fd_pr__nfet_01v8 ad=1.155 pd=7.33 as=1.155 ps=7.33 w=7 l=1
X5 a_n1986_8322.t7 a_n1986_13878.t44 vdd.t186 vdd.t185 sky130_fd_pr__pfet_01v8_lvt ad=1.485 pd=9.33 as=1.485 ps=9.33 w=9 l=0.5
X6 gnd.t399 commonsourceibias.t83 CSoutput.t200 gnd.t216 sky130_fd_pr__nfet_01v8 ad=1.155 pd=7.33 as=1.155 ps=7.33 w=7 l=1
X7 a_n1808_13878.t19 a_n1986_13878.t28 a_n1986_13878.t29 vdd.t182 sky130_fd_pr__pfet_01v8_lvt ad=1.485 pd=9.33 as=3.51 ps=18.78 w=9 l=0.5
X8 vdd.t100 a_n6972_8799.t32 CSoutput.t12 vdd.t99 sky130_fd_pr__pfet_01v8_lvt ad=1.32 pd=8.33 as=1.32 ps=8.33 w=8 l=0.5
X9 gnd.t398 commonsourceibias.t30 commonsourceibias.t31 gnd.t212 sky130_fd_pr__nfet_01v8 ad=1.155 pd=7.33 as=1.155 ps=7.33 w=7 l=1
X10 a_n3827_n3924.t34 diffpairibias.t20 gnd.t46 gnd.t45 sky130_fd_pr__nfet_01v8 ad=2.73 pd=14.78 as=2.73 ps=14.78 w=7 l=1
X11 CSoutput.t199 commonsourceibias.t84 gnd.t394 gnd.t343 sky130_fd_pr__nfet_01v8 ad=1.155 pd=7.33 as=1.155 ps=7.33 w=7 l=1
X12 a_n1986_13878.t27 a_n1986_13878.t26 a_n1808_13878.t18 vdd.t164 sky130_fd_pr__pfet_01v8_lvt ad=1.485 pd=9.33 as=1.485 ps=9.33 w=9 l=0.5
X13 vdd.t87 vdd.t85 vdd.t86 vdd.t63 sky130_fd_pr__pfet_01v8_lvt ad=3.51 pd=18.78 as=0 ps=0 w=9 l=0.5
X14 CSoutput.t27 a_n6972_8799.t33 vdd.t125 vdd.t124 sky130_fd_pr__pfet_01v8_lvt ad=1.32 pd=8.33 as=1.32 ps=8.33 w=8 l=0.5
X15 a_n1808_13878.t17 a_n1986_13878.t16 a_n1986_13878.t17 vdd.t174 sky130_fd_pr__pfet_01v8_lvt ad=1.485 pd=9.33 as=1.485 ps=9.33 w=9 l=0.5
X16 a_n1808_13878.t7 a_n1986_13878.t45 vdd.t184 vdd.t183 sky130_fd_pr__pfet_01v8_lvt ad=1.485 pd=9.33 as=1.485 ps=9.33 w=9 l=0.5
X17 gnd.t393 commonsourceibias.t60 commonsourceibias.t61 gnd.t202 sky130_fd_pr__nfet_01v8 ad=1.155 pd=7.33 as=1.155 ps=7.33 w=7 l=1
X18 vdd.t126 a_n6972_8799.t34 CSoutput.t28 vdd.t89 sky130_fd_pr__pfet_01v8_lvt ad=1.32 pd=8.33 as=1.32 ps=8.33 w=8 l=0.5
X19 CSoutput.t61 a_n6972_8799.t35 vdd.t212 vdd.t211 sky130_fd_pr__pfet_01v8_lvt ad=1.32 pd=8.33 as=1.32 ps=8.33 w=8 l=0.5
X20 vdd.t84 vdd.t82 vdd.t83 vdd.t17 sky130_fd_pr__pfet_01v8_lvt ad=3.12 pd=16.78 as=0 ps=0 w=8 l=0.5
X21 commonsourceibias.t59 commonsourceibias.t58 gnd.t392 gnd.t253 sky130_fd_pr__nfet_01v8 ad=1.155 pd=7.33 as=1.155 ps=7.33 w=7 l=1
X22 gnd.t391 commonsourceibias.t85 CSoutput.t198 gnd.t294 sky130_fd_pr__nfet_01v8 ad=1.155 pd=7.33 as=1.155 ps=7.33 w=7 l=1
X23 gnd.t180 gnd.t178 plus.t4 gnd.t179 sky130_fd_pr__nfet_01v8 ad=0.39 pd=2.78 as=0.165 ps=1.33 w=1 l=0.5
X24 CSoutput.t62 a_n6972_8799.t36 vdd.t213 vdd.t189 sky130_fd_pr__pfet_01v8_lvt ad=1.32 pd=8.33 as=1.32 ps=8.33 w=8 l=0.5
X25 a_n6972_8799.t24 plus.t5 a_n3827_n3924.t35 gnd.t55 sky130_fd_pr__nfet_01v8 ad=1.155 pd=7.33 as=1.155 ps=7.33 w=7 l=0.5
X26 minus.t4 gnd.t175 gnd.t177 gnd.t176 sky130_fd_pr__nfet_01v8 ad=0.165 pd=1.33 as=0.165 ps=1.33 w=1 l=0.5
X27 gnd.t174 gnd.t172 gnd.t173 gnd.t93 sky130_fd_pr__nfet_01v8 ad=2.73 pd=14.78 as=0 ps=0 w=7 l=1
X28 a_n1986_8322.t17 a_n1986_13878.t46 a_n6972_8799.t20 vdd.t181 sky130_fd_pr__pfet_01v8_lvt ad=1.485 pd=9.33 as=1.485 ps=9.33 w=9 l=0.5
X29 CSoutput.t197 commonsourceibias.t86 gnd.t382 gnd.t273 sky130_fd_pr__nfet_01v8 ad=1.155 pd=7.33 as=1.155 ps=7.33 w=7 l=1
X30 CSoutput.t25 a_n6972_8799.t37 vdd.t122 vdd.t121 sky130_fd_pr__pfet_01v8_lvt ad=1.32 pd=8.33 as=1.32 ps=8.33 w=8 l=0.5
X31 gnd.t171 gnd.t168 gnd.t170 gnd.t169 sky130_fd_pr__nfet_01v8 ad=2.34 pd=12.78 as=0 ps=0 w=6 l=2
X32 CSoutput.t196 commonsourceibias.t87 gnd.t390 gnd.t224 sky130_fd_pr__nfet_01v8 ad=1.155 pd=7.33 as=1.155 ps=7.33 w=7 l=1
X33 vdd.t123 a_n6972_8799.t38 CSoutput.t26 vdd.t4 sky130_fd_pr__pfet_01v8_lvt ad=1.32 pd=8.33 as=1.32 ps=8.33 w=8 l=0.5
X34 commonsourceibias.t57 commonsourceibias.t56 gnd.t389 gnd.t302 sky130_fd_pr__nfet_01v8 ad=1.155 pd=7.33 as=1.155 ps=7.33 w=7 l=1
X35 vdd.t240 CSoutput.t216 output.t19 gnd.t20 sky130_fd_pr__nfet_01v8_lvt ad=0.825 pd=5.33 as=0.825 ps=5.33 w=5 l=1
X36 a_n6972_8799.t28 plus.t6 a_n3827_n3924.t45 gnd.t24 sky130_fd_pr__nfet_01v8 ad=1.155 pd=7.33 as=1.155 ps=7.33 w=7 l=0.5
X37 gnd.t388 commonsourceibias.t88 CSoutput.t195 gnd.t222 sky130_fd_pr__nfet_01v8 ad=1.155 pd=7.33 as=1.155 ps=7.33 w=7 l=1
X38 gnd.t167 gnd.t165 gnd.t166 gnd.t86 sky130_fd_pr__nfet_01v8 ad=2.73 pd=14.78 as=0 ps=0 w=7 l=1
X39 CSoutput.t194 commonsourceibias.t89 gnd.t383 gnd.t241 sky130_fd_pr__nfet_01v8 ad=1.155 pd=7.33 as=1.155 ps=7.33 w=7 l=1
X40 CSoutput.t193 commonsourceibias.t90 gnd.t387 gnd.t343 sky130_fd_pr__nfet_01v8 ad=1.155 pd=7.33 as=1.155 ps=7.33 w=7 l=1
X41 vdd.t209 a_n6972_8799.t39 CSoutput.t59 vdd.t208 sky130_fd_pr__pfet_01v8_lvt ad=1.32 pd=8.33 as=1.32 ps=8.33 w=8 l=0.5
X42 gnd.t386 commonsourceibias.t54 commonsourceibias.t55 gnd.t294 sky130_fd_pr__nfet_01v8 ad=1.155 pd=7.33 as=1.155 ps=7.33 w=7 l=1
X43 outputibias.t7 outputibias.t6 gnd.t37 gnd.t36 sky130_fd_pr__nfet_01v8 ad=2.34 pd=12.78 as=2.34 ps=12.78 w=6 l=2
X44 gnd.t385 commonsourceibias.t52 commonsourceibias.t53 gnd.t208 sky130_fd_pr__nfet_01v8 ad=2.73 pd=14.78 as=1.155 ps=7.33 w=7 l=1
X45 CSoutput.t192 commonsourceibias.t91 gnd.t384 gnd.t305 sky130_fd_pr__nfet_01v8 ad=1.155 pd=7.33 as=1.155 ps=7.33 w=7 l=1
X46 CSoutput.t60 a_n6972_8799.t40 vdd.t210 vdd.t127 sky130_fd_pr__pfet_01v8_lvt ad=1.32 pd=8.33 as=1.32 ps=8.33 w=8 l=0.5
X47 a_n6972_8799.t19 a_n1986_13878.t47 a_n1986_8322.t9 vdd.t182 sky130_fd_pr__pfet_01v8_lvt ad=1.485 pd=9.33 as=3.51 ps=18.78 w=9 l=0.5
X48 vdd.t195 a_n6972_8799.t41 CSoutput.t49 vdd.t97 sky130_fd_pr__pfet_01v8_lvt ad=1.32 pd=8.33 as=1.32 ps=8.33 w=8 l=0.5
X49 a_n3827_n3924.t33 diffpairibias.t21 gnd.t29 gnd.t28 sky130_fd_pr__nfet_01v8 ad=2.73 pd=14.78 as=2.73 ps=14.78 w=7 l=1
X50 a_n3827_n3924.t4 minus.t5 a_n1986_13878.t2 gnd.t9 sky130_fd_pr__nfet_01v8 ad=1.155 pd=7.33 as=1.155 ps=7.33 w=7 l=0.5
X51 CSoutput.t50 a_n6972_8799.t42 vdd.t196 vdd.t135 sky130_fd_pr__pfet_01v8_lvt ad=1.32 pd=8.33 as=3.12 ps=16.78 w=8 l=0.5
X52 commonsourceibias.t51 commonsourceibias.t50 gnd.t381 gnd.t204 sky130_fd_pr__nfet_01v8 ad=1.155 pd=7.33 as=1.155 ps=7.33 w=7 l=1
X53 a_n3827_n3924.t5 plus.t7 a_n6972_8799.t2 gnd.t10 sky130_fd_pr__nfet_01v8 ad=1.155 pd=7.33 as=1.155 ps=7.33 w=7 l=0.5
X54 CSoutput.t191 commonsourceibias.t92 gnd.t380 gnd.t305 sky130_fd_pr__nfet_01v8 ad=1.155 pd=7.33 as=1.155 ps=7.33 w=7 l=1
X55 a_n1986_13878.t3 minus.t6 a_n3827_n3924.t7 gnd.t15 sky130_fd_pr__nfet_01v8 ad=1.155 pd=7.33 as=1.155 ps=7.33 w=7 l=0.5
X56 a_n3827_n3924.t46 plus.t8 a_n6972_8799.t29 gnd.t191 sky130_fd_pr__nfet_01v8 ad=1.155 pd=7.33 as=1.155 ps=7.33 w=7 l=0.5
X57 a_n3827_n3924.t10 minus.t7 a_n1986_13878.t5 gnd.t25 sky130_fd_pr__nfet_01v8 ad=1.155 pd=7.33 as=1.155 ps=7.33 w=7 l=0.5
X58 vdd.t81 vdd.t79 vdd.t80 vdd.t13 sky130_fd_pr__pfet_01v8_lvt ad=3.12 pd=16.78 as=0 ps=0 w=8 l=0.5
X59 CSoutput.t47 a_n6972_8799.t43 vdd.t192 vdd.t124 sky130_fd_pr__pfet_01v8_lvt ad=1.32 pd=8.33 as=1.32 ps=8.33 w=8 l=0.5
X60 gnd.t379 commonsourceibias.t48 commonsourceibias.t49 gnd.t290 sky130_fd_pr__nfet_01v8 ad=1.155 pd=7.33 as=1.155 ps=7.33 w=7 l=1
X61 CSoutput.t190 commonsourceibias.t93 gnd.t378 gnd.t218 sky130_fd_pr__nfet_01v8 ad=1.155 pd=7.33 as=2.73 ps=14.78 w=7 l=1
X62 CSoutput.t48 a_n6972_8799.t44 vdd.t194 vdd.t193 sky130_fd_pr__pfet_01v8_lvt ad=1.32 pd=8.33 as=1.32 ps=8.33 w=8 l=0.5
X63 vdd.t78 vdd.t76 vdd.t77 vdd.t17 sky130_fd_pr__pfet_01v8_lvt ad=3.12 pd=16.78 as=0 ps=0 w=8 l=0.5
X64 CSoutput.t45 a_n6972_8799.t45 vdd.t190 vdd.t189 sky130_fd_pr__pfet_01v8_lvt ad=1.32 pd=8.33 as=1.32 ps=8.33 w=8 l=0.5
X65 a_n3827_n3924.t39 minus.t8 a_n1986_13878.t39 gnd.t39 sky130_fd_pr__nfet_01v8 ad=1.155 pd=7.33 as=1.155 ps=7.33 w=7 l=0.5
X66 CSoutput.t189 commonsourceibias.t94 gnd.t377 gnd.t233 sky130_fd_pr__nfet_01v8 ad=1.155 pd=7.33 as=2.73 ps=14.78 w=7 l=1
X67 gnd.t376 commonsourceibias.t95 CSoutput.t188 gnd.t257 sky130_fd_pr__nfet_01v8 ad=1.155 pd=7.33 as=1.155 ps=7.33 w=7 l=1
X68 diffpairibias.t19 diffpairibias.t18 gnd.t197 gnd.t196 sky130_fd_pr__nfet_01v8 ad=2.73 pd=14.78 as=2.73 ps=14.78 w=7 l=1
X69 CSoutput.t187 commonsourceibias.t96 gnd.t375 gnd.t263 sky130_fd_pr__nfet_01v8 ad=1.155 pd=7.33 as=1.155 ps=7.33 w=7 l=1
X70 a_n1808_13878.t16 a_n1986_13878.t20 a_n1986_13878.t21 vdd.t146 sky130_fd_pr__pfet_01v8_lvt ad=1.485 pd=9.33 as=3.51 ps=18.78 w=9 l=0.5
X71 vdd.t191 a_n6972_8799.t46 CSoutput.t46 vdd.t97 sky130_fd_pr__pfet_01v8_lvt ad=1.32 pd=8.33 as=1.32 ps=8.33 w=8 l=0.5
X72 CSoutput.t43 a_n6972_8799.t47 vdd.t187 vdd.t0 sky130_fd_pr__pfet_01v8_lvt ad=1.32 pd=8.33 as=1.32 ps=8.33 w=8 l=0.5
X73 a_n1986_13878.t11 a_n1986_13878.t10 a_n1808_13878.t15 vdd.t156 sky130_fd_pr__pfet_01v8_lvt ad=1.485 pd=9.33 as=1.485 ps=9.33 w=9 l=0.5
X74 vdd.t230 CSoutput.t217 output.t18 gnd.t21 sky130_fd_pr__nfet_01v8_lvt ad=0.825 pd=5.33 as=0.825 ps=5.33 w=5 l=1
X75 CSoutput.t186 commonsourceibias.t97 gnd.t374 gnd.t316 sky130_fd_pr__nfet_01v8 ad=1.155 pd=7.33 as=1.155 ps=7.33 w=7 l=1
X76 gnd.t164 gnd.t162 gnd.t163 gnd.t82 sky130_fd_pr__nfet_01v8 ad=2.73 pd=14.78 as=0 ps=0 w=7 l=0.5
X77 CSoutput.t185 commonsourceibias.t98 gnd.t373 gnd.t287 sky130_fd_pr__nfet_01v8 ad=1.155 pd=7.33 as=1.155 ps=7.33 w=7 l=1
X78 CSoutput.t44 a_n6972_8799.t48 vdd.t188 vdd.t121 sky130_fd_pr__pfet_01v8_lvt ad=1.32 pd=8.33 as=1.32 ps=8.33 w=8 l=0.5
X79 vdd.t75 vdd.t73 vdd.t74 vdd.t48 sky130_fd_pr__pfet_01v8_lvt ad=3.51 pd=18.78 as=0 ps=0 w=9 l=0.5
X80 commonsourceibias.t47 commonsourceibias.t46 gnd.t372 gnd.t265 sky130_fd_pr__nfet_01v8 ad=1.155 pd=7.33 as=1.155 ps=7.33 w=7 l=1
X81 gnd.t161 gnd.t159 gnd.t160 gnd.t74 sky130_fd_pr__nfet_01v8 ad=2.73 pd=14.78 as=0 ps=0 w=7 l=1
X82 gnd.t158 gnd.t157 plus.t3 gnd.t82 sky130_fd_pr__nfet_01v8 ad=0.165 pd=1.33 as=0.165 ps=1.33 w=1 l=0.5
X83 vdd.t5 a_n6972_8799.t49 CSoutput.t2 vdd.t4 sky130_fd_pr__pfet_01v8_lvt ad=1.32 pd=8.33 as=1.32 ps=8.33 w=8 l=0.5
X84 CSoutput.t184 commonsourceibias.t99 gnd.t371 gnd.t343 sky130_fd_pr__nfet_01v8 ad=1.155 pd=7.33 as=1.155 ps=7.33 w=7 l=1
X85 minus.t3 gnd.t154 gnd.t156 gnd.t155 sky130_fd_pr__nfet_01v8 ad=0.165 pd=1.33 as=0.165 ps=1.33 w=1 l=0.5
X86 gnd.t153 gnd.t150 gnd.t152 gnd.t151 sky130_fd_pr__nfet_01v8_lvt ad=1.95 pd=10.78 as=0 ps=0 w=5 l=1
X87 diffpairibias.t17 diffpairibias.t16 gnd.t33 gnd.t32 sky130_fd_pr__nfet_01v8 ad=2.73 pd=14.78 as=2.73 ps=14.78 w=7 l=1
X88 gnd.t149 gnd.t147 gnd.t148 gnd.t74 sky130_fd_pr__nfet_01v8 ad=2.73 pd=14.78 as=0 ps=0 w=7 l=1
X89 CSoutput.t3 a_n6972_8799.t50 vdd.t7 vdd.t6 sky130_fd_pr__pfet_01v8_lvt ad=1.32 pd=8.33 as=1.32 ps=8.33 w=8 l=0.5
X90 CSoutput.t183 commonsourceibias.t100 gnd.t370 gnd.t233 sky130_fd_pr__nfet_01v8 ad=1.155 pd=7.33 as=2.73 ps=14.78 w=7 l=1
X91 CSoutput.t182 commonsourceibias.t101 gnd.t367 gnd.t287 sky130_fd_pr__nfet_01v8 ad=1.155 pd=7.33 as=1.155 ps=7.33 w=7 l=1
X92 vdd.t96 a_n6972_8799.t51 CSoutput.t10 vdd.t95 sky130_fd_pr__pfet_01v8_lvt ad=1.32 pd=8.33 as=1.32 ps=8.33 w=8 l=0.5
X93 gnd.t146 gnd.t144 gnd.t145 gnd.t103 sky130_fd_pr__nfet_01v8 ad=2.73 pd=14.78 as=0 ps=0 w=7 l=1
X94 vdd.t98 a_n6972_8799.t52 CSoutput.t11 vdd.t97 sky130_fd_pr__pfet_01v8_lvt ad=1.32 pd=8.33 as=1.32 ps=8.33 w=8 l=0.5
X95 vdd.t254 a_n6972_8799.t53 CSoutput.t206 vdd.t206 sky130_fd_pr__pfet_01v8_lvt ad=1.32 pd=8.33 as=1.32 ps=8.33 w=8 l=0.5
X96 CSoutput.t207 a_n6972_8799.t54 vdd.t255 vdd.t135 sky130_fd_pr__pfet_01v8_lvt ad=1.32 pd=8.33 as=3.12 ps=16.78 w=8 l=0.5
X97 CSoutput.t212 a_n6972_8799.t55 vdd.t260 vdd.t200 sky130_fd_pr__pfet_01v8_lvt ad=1.32 pd=8.33 as=3.12 ps=16.78 w=8 l=0.5
X98 gnd.t369 commonsourceibias.t102 CSoutput.t181 gnd.t259 sky130_fd_pr__nfet_01v8 ad=1.155 pd=7.33 as=1.155 ps=7.33 w=7 l=1
X99 CSoutput.t180 commonsourceibias.t103 gnd.t368 gnd.t281 sky130_fd_pr__nfet_01v8 ad=1.155 pd=7.33 as=1.155 ps=7.33 w=7 l=1
X100 a_n6972_8799.t0 plus.t9 a_n3827_n3924.t1 gnd.t5 sky130_fd_pr__nfet_01v8 ad=1.155 pd=7.33 as=1.155 ps=7.33 w=7 l=0.5
X101 gnd.t366 commonsourceibias.t104 CSoutput.t179 gnd.t237 sky130_fd_pr__nfet_01v8 ad=2.73 pd=14.78 as=1.155 ps=7.33 w=7 l=1
X102 vdd.t261 a_n6972_8799.t56 CSoutput.t213 vdd.t108 sky130_fd_pr__pfet_01v8_lvt ad=1.32 pd=8.33 as=1.32 ps=8.33 w=8 l=0.5
X103 gnd.t143 gnd.t141 gnd.t142 gnd.t93 sky130_fd_pr__nfet_01v8 ad=2.73 pd=14.78 as=0 ps=0 w=7 l=1
X104 CSoutput.t82 a_n6972_8799.t57 vdd.t250 vdd.t91 sky130_fd_pr__pfet_01v8_lvt ad=1.32 pd=8.33 as=1.32 ps=8.33 w=8 l=0.5
X105 output.t3 outputibias.t8 gnd.t188 gnd.t187 sky130_fd_pr__nfet_01v8 ad=2.34 pd=12.78 as=2.34 ps=12.78 w=6 l=2
X106 a_n3827_n3924.t32 diffpairibias.t22 gnd.t199 gnd.t198 sky130_fd_pr__nfet_01v8 ad=2.73 pd=14.78 as=2.73 ps=14.78 w=7 l=1
X107 CSoutput.t83 a_n6972_8799.t58 vdd.t251 vdd.t193 sky130_fd_pr__pfet_01v8_lvt ad=1.32 pd=8.33 as=1.32 ps=8.33 w=8 l=0.5
X108 CSoutput.t8 a_n6972_8799.t59 vdd.t92 vdd.t91 sky130_fd_pr__pfet_01v8_lvt ad=1.32 pd=8.33 as=1.32 ps=8.33 w=8 l=0.5
X109 a_n3827_n3924.t16 minus.t9 a_n1986_13878.t8 gnd.t47 sky130_fd_pr__nfet_01v8 ad=1.155 pd=7.33 as=1.155 ps=7.33 w=7 l=0.5
X110 CSoutput.t178 commonsourceibias.t105 gnd.t365 gnd.t214 sky130_fd_pr__nfet_01v8 ad=1.155 pd=7.33 as=1.155 ps=7.33 w=7 l=1
X111 vdd.t94 a_n6972_8799.t60 CSoutput.t9 vdd.t93 sky130_fd_pr__pfet_01v8_lvt ad=1.32 pd=8.33 as=1.32 ps=8.33 w=8 l=0.5
X112 gnd.t364 commonsourceibias.t106 CSoutput.t177 gnd.t231 sky130_fd_pr__nfet_01v8 ad=1.155 pd=7.33 as=1.155 ps=7.33 w=7 l=1
X113 a_n1986_13878.t1 minus.t10 a_n3827_n3924.t3 gnd.t8 sky130_fd_pr__nfet_01v8 ad=1.155 pd=7.33 as=1.155 ps=7.33 w=7 l=0.5
X114 a_n3827_n3924.t17 plus.t10 a_n6972_8799.t8 gnd.t48 sky130_fd_pr__nfet_01v8 ad=1.155 pd=7.33 as=1.155 ps=7.33 w=7 l=0.5
X115 output.t17 CSoutput.t218 vdd.t238 gnd.t22 sky130_fd_pr__nfet_01v8_lvt ad=0.825 pd=5.33 as=0.825 ps=5.33 w=5 l=1
X116 commonsourceibias.t45 commonsourceibias.t44 gnd.t363 gnd.t241 sky130_fd_pr__nfet_01v8 ad=1.155 pd=7.33 as=1.155 ps=7.33 w=7 l=1
X117 gnd.t357 commonsourceibias.t107 CSoutput.t176 gnd.t255 sky130_fd_pr__nfet_01v8 ad=1.155 pd=7.33 as=1.155 ps=7.33 w=7 l=1
X118 CSoutput.t175 commonsourceibias.t108 gnd.t356 gnd.t235 sky130_fd_pr__nfet_01v8 ad=1.155 pd=7.33 as=1.155 ps=7.33 w=7 l=1
X119 a_n1986_13878.t13 a_n1986_13878.t12 a_n1808_13878.t14 vdd.t181 sky130_fd_pr__pfet_01v8_lvt ad=1.485 pd=9.33 as=1.485 ps=9.33 w=9 l=0.5
X120 CSoutput.t219 a_n1986_8322.t20 sky130_fd_pr__cap_mim_m3_1 l=12 w=12
X121 gnd.t359 commonsourceibias.t42 commonsourceibias.t43 gnd.t239 sky130_fd_pr__nfet_01v8 ad=1.155 pd=7.33 as=1.155 ps=7.33 w=7 l=1
X122 vdd.t248 a_n6972_8799.t61 CSoutput.t80 vdd.t101 sky130_fd_pr__pfet_01v8_lvt ad=1.32 pd=8.33 as=1.32 ps=8.33 w=8 l=0.5
X123 vdd.t249 a_n6972_8799.t62 CSoutput.t81 vdd.t208 sky130_fd_pr__pfet_01v8_lvt ad=1.32 pd=8.33 as=1.32 ps=8.33 w=8 l=0.5
X124 a_n6972_8799.t18 a_n1986_13878.t48 a_n1986_8322.t8 vdd.t173 sky130_fd_pr__pfet_01v8_lvt ad=1.485 pd=9.33 as=1.485 ps=9.33 w=9 l=0.5
X125 a_n1986_13878.t25 a_n1986_13878.t24 a_n1808_13878.t13 vdd.t143 sky130_fd_pr__pfet_01v8_lvt ad=3.51 pd=18.78 as=1.485 ps=9.33 w=9 l=0.5
X126 CSoutput.t174 commonsourceibias.t109 gnd.t362 gnd.t305 sky130_fd_pr__nfet_01v8 ad=1.155 pd=7.33 as=1.155 ps=7.33 w=7 l=1
X127 vdd.t119 a_n6972_8799.t63 CSoutput.t23 vdd.t93 sky130_fd_pr__pfet_01v8_lvt ad=1.32 pd=8.33 as=1.32 ps=8.33 w=8 l=0.5
X128 diffpairibias.t15 diffpairibias.t14 gnd.t57 gnd.t56 sky130_fd_pr__nfet_01v8 ad=2.73 pd=14.78 as=2.73 ps=14.78 w=7 l=1
X129 a_n3827_n3924.t14 minus.t11 a_n1986_13878.t7 gnd.t7 sky130_fd_pr__nfet_01v8 ad=2.73 pd=14.78 as=1.155 ps=7.33 w=7 l=0.5
X130 vdd.t120 a_n6972_8799.t64 CSoutput.t24 vdd.t115 sky130_fd_pr__pfet_01v8_lvt ad=1.32 pd=8.33 as=1.32 ps=8.33 w=8 l=0.5
X131 gnd.t355 commonsourceibias.t110 CSoutput.t173 gnd.t246 sky130_fd_pr__nfet_01v8 ad=1.155 pd=7.33 as=1.155 ps=7.33 w=7 l=1
X132 CSoutput.t57 a_n6972_8799.t65 vdd.t205 vdd.t117 sky130_fd_pr__pfet_01v8_lvt ad=1.32 pd=8.33 as=1.32 ps=8.33 w=8 l=0.5
X133 gnd.t358 commonsourceibias.t40 commonsourceibias.t41 gnd.t210 sky130_fd_pr__nfet_01v8 ad=1.155 pd=7.33 as=1.155 ps=7.33 w=7 l=1
X134 CSoutput.t172 commonsourceibias.t111 gnd.t361 gnd.t249 sky130_fd_pr__nfet_01v8 ad=1.155 pd=7.33 as=1.155 ps=7.33 w=7 l=1
X135 CSoutput.t171 commonsourceibias.t112 gnd.t360 gnd.t302 sky130_fd_pr__nfet_01v8 ad=1.155 pd=7.33 as=1.155 ps=7.33 w=7 l=1
X136 vdd.t72 vdd.t70 vdd.t71 vdd.t56 sky130_fd_pr__pfet_01v8_lvt ad=3.51 pd=18.78 as=0 ps=0 w=9 l=0.5
X137 vdd.t207 a_n6972_8799.t66 CSoutput.t58 vdd.t206 sky130_fd_pr__pfet_01v8_lvt ad=1.32 pd=8.33 as=1.32 ps=8.33 w=8 l=0.5
X138 a_n3827_n3924.t31 diffpairibias.t23 gnd.t17 gnd.t16 sky130_fd_pr__nfet_01v8 ad=2.73 pd=14.78 as=2.73 ps=14.78 w=7 l=1
X139 CSoutput.t55 a_n6972_8799.t67 vdd.t203 vdd.t200 sky130_fd_pr__pfet_01v8_lvt ad=1.32 pd=8.33 as=3.12 ps=16.78 w=8 l=0.5
X140 gnd.t354 commonsourceibias.t113 CSoutput.t170 gnd.t300 sky130_fd_pr__nfet_01v8 ad=1.155 pd=7.33 as=1.155 ps=7.33 w=7 l=1
X141 a_n1986_13878.t6 minus.t12 a_n3827_n3924.t13 gnd.t40 sky130_fd_pr__nfet_01v8 ad=1.155 pd=7.33 as=1.155 ps=7.33 w=7 l=0.5
X142 vdd.t69 vdd.t66 vdd.t68 vdd.t67 sky130_fd_pr__pfet_01v8_lvt ad=3.51 pd=18.78 as=0 ps=0 w=9 l=0.5
X143 output.t16 CSoutput.t220 vdd.t241 gnd.t18 sky130_fd_pr__nfet_01v8_lvt ad=0.825 pd=5.33 as=0.825 ps=5.33 w=5 l=1
X144 vdd.t65 vdd.t62 vdd.t64 vdd.t63 sky130_fd_pr__pfet_01v8_lvt ad=3.51 pd=18.78 as=0 ps=0 w=9 l=0.5
X145 commonsourceibias.t39 commonsourceibias.t38 gnd.t353 gnd.t218 sky130_fd_pr__nfet_01v8 ad=1.155 pd=7.33 as=2.73 ps=14.78 w=7 l=1
X146 a_n3827_n3924.t6 plus.t11 a_n6972_8799.t3 gnd.t4 sky130_fd_pr__nfet_01v8 ad=1.155 pd=7.33 as=1.155 ps=7.33 w=7 l=0.5
X147 vdd.t61 vdd.t59 vdd.t60 vdd.t52 sky130_fd_pr__pfet_01v8_lvt ad=3.51 pd=18.78 as=0 ps=0 w=9 l=0.5
X148 gnd.t352 commonsourceibias.t114 CSoutput.t169 gnd.t277 sky130_fd_pr__nfet_01v8 ad=1.155 pd=7.33 as=1.155 ps=7.33 w=7 l=1
X149 commonsourceibias.t37 commonsourceibias.t36 gnd.t351 gnd.t224 sky130_fd_pr__nfet_01v8 ad=1.155 pd=7.33 as=1.155 ps=7.33 w=7 l=1
X150 vdd.t180 a_n1986_13878.t49 a_n1986_8322.t6 vdd.t179 sky130_fd_pr__pfet_01v8_lvt ad=1.485 pd=9.33 as=1.485 ps=9.33 w=9 l=0.5
X151 a_n1986_8322.t5 a_n1986_13878.t50 vdd.t178 vdd.t177 sky130_fd_pr__pfet_01v8_lvt ad=1.485 pd=9.33 as=1.485 ps=9.33 w=9 l=0.5
X152 gnd.t350 commonsourceibias.t34 commonsourceibias.t35 gnd.t222 sky130_fd_pr__nfet_01v8 ad=1.155 pd=7.33 as=1.155 ps=7.33 w=7 l=1
X153 CSoutput.t56 a_n6972_8799.t68 vdd.t204 vdd.t91 sky130_fd_pr__pfet_01v8_lvt ad=1.32 pd=8.33 as=1.32 ps=8.33 w=8 l=0.5
X154 CSoutput.t168 commonsourceibias.t115 gnd.t349 gnd.t263 sky130_fd_pr__nfet_01v8 ad=1.155 pd=7.33 as=1.155 ps=7.33 w=7 l=1
X155 gnd.t348 commonsourceibias.t116 CSoutput.t167 gnd.t216 sky130_fd_pr__nfet_01v8 ad=1.155 pd=7.33 as=1.155 ps=7.33 w=7 l=1
X156 output.t15 CSoutput.t221 vdd.t239 gnd.t19 sky130_fd_pr__nfet_01v8_lvt ad=0.825 pd=5.33 as=0.825 ps=5.33 w=5 l=1
X157 vdd.t237 CSoutput.t222 output.t14 gnd.t0 sky130_fd_pr__nfet_01v8_lvt ad=0.825 pd=5.33 as=0.825 ps=5.33 w=5 l=1
X158 vdd.t227 a_n6972_8799.t69 CSoutput.t76 vdd.t93 sky130_fd_pr__pfet_01v8_lvt ad=1.32 pd=8.33 as=1.32 ps=8.33 w=8 l=0.5
X159 CSoutput.t166 commonsourceibias.t117 gnd.t331 gnd.t281 sky130_fd_pr__nfet_01v8 ad=1.155 pd=7.33 as=1.155 ps=7.33 w=7 l=1
X160 vdd.t176 a_n1986_13878.t51 a_n1808_13878.t6 vdd.t175 sky130_fd_pr__pfet_01v8_lvt ad=1.485 pd=9.33 as=1.485 ps=9.33 w=9 l=0.5
X161 a_n6972_8799.t22 plus.t12 a_n3827_n3924.t21 gnd.t49 sky130_fd_pr__nfet_01v8 ad=1.155 pd=7.33 as=2.73 ps=14.78 w=7 l=0.5
X162 commonsourceibias.t15 commonsourceibias.t14 gnd.t347 gnd.t206 sky130_fd_pr__nfet_01v8 ad=1.155 pd=7.33 as=1.155 ps=7.33 w=7 l=1
X163 gnd.t346 commonsourceibias.t118 CSoutput.t165 gnd.t244 sky130_fd_pr__nfet_01v8 ad=1.155 pd=7.33 as=1.155 ps=7.33 w=7 l=1
X164 a_n1986_13878.t36 minus.t13 a_n3827_n3924.t24 gnd.t38 sky130_fd_pr__nfet_01v8 ad=1.155 pd=7.33 as=1.155 ps=7.33 w=7 l=0.5
X165 vdd.t58 vdd.t55 vdd.t57 vdd.t56 sky130_fd_pr__pfet_01v8_lvt ad=3.51 pd=18.78 as=0 ps=0 w=9 l=0.5
X166 diffpairibias.t13 diffpairibias.t12 gnd.t410 gnd.t409 sky130_fd_pr__nfet_01v8 ad=2.73 pd=14.78 as=2.73 ps=14.78 w=7 l=1
X167 CSoutput.t223 a_n1986_8322.t20 sky130_fd_pr__cap_mim_m3_1 l=12 w=12
X168 vdd.t54 vdd.t51 vdd.t53 vdd.t52 sky130_fd_pr__pfet_01v8_lvt ad=3.51 pd=18.78 as=0 ps=0 w=9 l=0.5
X169 vdd.t228 a_n6972_8799.t70 CSoutput.t77 vdd.t208 sky130_fd_pr__pfet_01v8_lvt ad=1.32 pd=8.33 as=1.32 ps=8.33 w=8 l=0.5
X170 gnd.t345 commonsourceibias.t12 commonsourceibias.t13 gnd.t216 sky130_fd_pr__nfet_01v8 ad=1.155 pd=7.33 as=1.155 ps=7.33 w=7 l=1
X171 commonsourceibias.t11 commonsourceibias.t10 gnd.t344 gnd.t343 sky130_fd_pr__nfet_01v8 ad=1.155 pd=7.33 as=1.155 ps=7.33 w=7 l=1
X172 vdd.t50 vdd.t47 vdd.t49 vdd.t48 sky130_fd_pr__pfet_01v8_lvt ad=3.51 pd=18.78 as=0 ps=0 w=9 l=0.5
X173 a_n6972_8799.t17 a_n1986_13878.t52 a_n1986_8322.t18 vdd.t148 sky130_fd_pr__pfet_01v8_lvt ad=1.485 pd=9.33 as=1.485 ps=9.33 w=9 l=0.5
X174 a_n1986_8322.t4 a_n1986_13878.t53 vdd.t172 vdd.t171 sky130_fd_pr__pfet_01v8_lvt ad=3.51 pd=18.78 as=1.485 ps=9.33 w=9 l=0.5
X175 plus.t2 gnd.t138 gnd.t140 gnd.t139 sky130_fd_pr__nfet_01v8 ad=0.165 pd=1.33 as=0.165 ps=1.33 w=1 l=0.5
X176 gnd.t342 commonsourceibias.t119 CSoutput.t164 gnd.t251 sky130_fd_pr__nfet_01v8 ad=1.155 pd=7.33 as=1.155 ps=7.33 w=7 l=1
X177 gnd.t137 gnd.t135 gnd.t136 gnd.t103 sky130_fd_pr__nfet_01v8 ad=2.73 pd=14.78 as=0 ps=0 w=7 l=1
X178 vdd.t116 a_n6972_8799.t71 CSoutput.t21 vdd.t115 sky130_fd_pr__pfet_01v8_lvt ad=1.32 pd=8.33 as=1.32 ps=8.33 w=8 l=0.5
X179 a_n1986_13878.t23 a_n1986_13878.t22 a_n1808_13878.t12 vdd.t159 sky130_fd_pr__pfet_01v8_lvt ad=1.485 pd=9.33 as=1.485 ps=9.33 w=9 l=0.5
X180 gnd.t341 commonsourceibias.t120 CSoutput.t163 gnd.t210 sky130_fd_pr__nfet_01v8 ad=1.155 pd=7.33 as=1.155 ps=7.33 w=7 l=1
X181 gnd.t134 gnd.t132 minus.t2 gnd.t133 sky130_fd_pr__nfet_01v8 ad=0.39 pd=2.78 as=0.165 ps=1.33 w=1 l=0.5
X182 a_n6972_8799.t16 a_n1986_13878.t54 a_n1986_8322.t16 vdd.t174 sky130_fd_pr__pfet_01v8_lvt ad=1.485 pd=9.33 as=1.485 ps=9.33 w=9 l=0.5
X183 CSoutput.t22 a_n6972_8799.t72 vdd.t118 vdd.t117 sky130_fd_pr__pfet_01v8_lvt ad=1.32 pd=8.33 as=1.32 ps=8.33 w=8 l=0.5
X184 a_n1986_13878.t38 minus.t14 a_n3827_n3924.t38 gnd.t23 sky130_fd_pr__nfet_01v8 ad=1.155 pd=7.33 as=1.155 ps=7.33 w=7 l=0.5
X185 output.t2 outputibias.t9 gnd.t186 gnd.t185 sky130_fd_pr__nfet_01v8 ad=2.34 pd=12.78 as=2.34 ps=12.78 w=6 l=2
X186 a_n1808_13878.t11 a_n1986_13878.t18 a_n1986_13878.t19 vdd.t173 sky130_fd_pr__pfet_01v8_lvt ad=1.485 pd=9.33 as=1.485 ps=9.33 w=9 l=0.5
X187 output.t13 CSoutput.t224 vdd.t234 gnd.t1 sky130_fd_pr__nfet_01v8_lvt ad=0.825 pd=5.33 as=0.825 ps=5.33 w=5 l=1
X188 gnd.t131 gnd.t129 gnd.t130 gnd.t93 sky130_fd_pr__nfet_01v8 ad=2.73 pd=14.78 as=0 ps=0 w=7 l=1
X189 CSoutput.t162 commonsourceibias.t121 gnd.t340 gnd.t214 sky130_fd_pr__nfet_01v8 ad=1.155 pd=7.33 as=1.155 ps=7.33 w=7 l=1
X190 CSoutput.t6 a_n6972_8799.t73 vdd.t88 vdd.t6 sky130_fd_pr__pfet_01v8_lvt ad=1.32 pd=8.33 as=1.32 ps=8.33 w=8 l=0.5
X191 gnd.t339 commonsourceibias.t122 CSoutput.t161 gnd.t259 sky130_fd_pr__nfet_01v8 ad=1.155 pd=7.33 as=1.155 ps=7.33 w=7 l=1
X192 commonsourceibias.t9 commonsourceibias.t8 gnd.t338 gnd.t273 sky130_fd_pr__nfet_01v8 ad=1.155 pd=7.33 as=1.155 ps=7.33 w=7 l=1
X193 gnd.t337 commonsourceibias.t123 CSoutput.t160 gnd.t257 sky130_fd_pr__nfet_01v8 ad=1.155 pd=7.33 as=1.155 ps=7.33 w=7 l=1
X194 vdd.t170 a_n1986_13878.t55 a_n1986_8322.t3 vdd.t169 sky130_fd_pr__pfet_01v8_lvt ad=1.485 pd=9.33 as=3.51 ps=18.78 w=9 l=0.5
X195 gnd.t336 commonsourceibias.t124 CSoutput.t159 gnd.t255 sky130_fd_pr__nfet_01v8 ad=1.155 pd=7.33 as=1.155 ps=7.33 w=7 l=1
X196 vdd.t90 a_n6972_8799.t74 CSoutput.t7 vdd.t89 sky130_fd_pr__pfet_01v8_lvt ad=1.32 pd=8.33 as=1.32 ps=8.33 w=8 l=0.5
X197 output.t12 CSoutput.t225 vdd.t231 gnd.t6 sky130_fd_pr__nfet_01v8_lvt ad=0.825 pd=5.33 as=0.825 ps=5.33 w=5 l=1
X198 a_n3827_n3924.t30 diffpairibias.t24 gnd.t44 gnd.t43 sky130_fd_pr__nfet_01v8 ad=2.73 pd=14.78 as=2.73 ps=14.78 w=7 l=1
X199 a_n3827_n3924.t29 diffpairibias.t25 gnd.t201 gnd.t200 sky130_fd_pr__nfet_01v8 ad=2.73 pd=14.78 as=2.73 ps=14.78 w=7 l=1
X200 a_n1986_13878.t35 minus.t15 a_n3827_n3924.t22 gnd.t55 sky130_fd_pr__nfet_01v8 ad=1.155 pd=7.33 as=1.155 ps=7.33 w=7 l=0.5
X201 CSoutput.t0 a_n6972_8799.t75 vdd.t1 vdd.t0 sky130_fd_pr__pfet_01v8_lvt ad=1.32 pd=8.33 as=1.32 ps=8.33 w=8 l=0.5
X202 vdd.t3 a_n6972_8799.t76 CSoutput.t1 vdd.t2 sky130_fd_pr__pfet_01v8_lvt ad=3.12 pd=16.78 as=1.32 ps=8.33 w=8 l=0.5
X203 gnd.t128 gnd.t126 minus.t1 gnd.t127 sky130_fd_pr__nfet_01v8 ad=0.165 pd=1.33 as=0.39 ps=2.78 w=1 l=0.5
X204 CSoutput.t226 a_n1986_8322.t20 sky130_fd_pr__cap_mim_m3_1 l=12 w=12
X205 gnd.t125 gnd.t123 gnd.t124 gnd.t66 sky130_fd_pr__nfet_01v8 ad=2.73 pd=14.78 as=0 ps=0 w=7 l=0.5
X206 vdd.t246 a_n6972_8799.t77 CSoutput.t78 vdd.t245 sky130_fd_pr__pfet_01v8_lvt ad=1.32 pd=8.33 as=1.32 ps=8.33 w=8 l=0.5
X207 a_n1986_13878.t4 minus.t16 a_n3827_n3924.t9 gnd.t24 sky130_fd_pr__nfet_01v8 ad=1.155 pd=7.33 as=1.155 ps=7.33 w=7 l=0.5
X208 CSoutput.t227 a_n1986_8322.t20 sky130_fd_pr__cap_mim_m3_1 l=12 w=12
X209 CSoutput.t158 commonsourceibias.t125 gnd.t335 gnd.t316 sky130_fd_pr__nfet_01v8 ad=1.155 pd=7.33 as=1.155 ps=7.33 w=7 l=1
X210 gnd.t122 gnd.t120 gnd.t121 gnd.t74 sky130_fd_pr__nfet_01v8 ad=2.73 pd=14.78 as=0 ps=0 w=7 l=1
X211 gnd.t334 commonsourceibias.t126 CSoutput.t157 gnd.t277 sky130_fd_pr__nfet_01v8 ad=1.155 pd=7.33 as=1.155 ps=7.33 w=7 l=1
X212 diffpairibias.t11 diffpairibias.t10 gnd.t42 gnd.t41 sky130_fd_pr__nfet_01v8 ad=2.73 pd=14.78 as=2.73 ps=14.78 w=7 l=1
X213 gnd.t119 gnd.t117 gnd.t118 gnd.t86 sky130_fd_pr__nfet_01v8 ad=2.73 pd=14.78 as=0 ps=0 w=7 l=1
X214 vdd.t229 CSoutput.t228 output.t11 gnd.t402 sky130_fd_pr__nfet_01v8_lvt ad=0.825 pd=5.33 as=0.825 ps=5.33 w=5 l=1
X215 gnd.t333 commonsourceibias.t127 CSoutput.t156 gnd.t231 sky130_fd_pr__nfet_01v8 ad=1.155 pd=7.33 as=1.155 ps=7.33 w=7 l=1
X216 gnd.t332 commonsourceibias.t128 CSoutput.t155 gnd.t294 sky130_fd_pr__nfet_01v8 ad=1.155 pd=7.33 as=1.155 ps=7.33 w=7 l=1
X217 a_n3827_n3924.t15 plus.t13 a_n6972_8799.t7 gnd.t9 sky130_fd_pr__nfet_01v8 ad=1.155 pd=7.33 as=1.155 ps=7.33 w=7 l=0.5
X218 CSoutput.t154 commonsourceibias.t129 gnd.t330 gnd.t218 sky130_fd_pr__nfet_01v8 ad=1.155 pd=7.33 as=2.73 ps=14.78 w=7 l=1
X219 CSoutput.t79 a_n6972_8799.t78 vdd.t247 vdd.t124 sky130_fd_pr__pfet_01v8_lvt ad=1.32 pd=8.33 as=1.32 ps=8.33 w=8 l=0.5
X220 CSoutput.t41 a_n6972_8799.t79 vdd.t141 vdd.t103 sky130_fd_pr__pfet_01v8_lvt ad=1.32 pd=8.33 as=1.32 ps=8.33 w=8 l=0.5
X221 outputibias.t5 outputibias.t4 gnd.t35 gnd.t34 sky130_fd_pr__nfet_01v8 ad=2.34 pd=12.78 as=2.34 ps=12.78 w=6 l=2
X222 a_n3827_n3924.t41 minus.t17 a_n1986_13878.t41 gnd.t191 sky130_fd_pr__nfet_01v8 ad=1.155 pd=7.33 as=1.155 ps=7.33 w=7 l=0.5
X223 a_n1808_13878.t5 a_n1986_13878.t56 vdd.t168 vdd.t167 sky130_fd_pr__pfet_01v8_lvt ad=1.485 pd=9.33 as=1.485 ps=9.33 w=9 l=0.5
X224 diffpairibias.t9 diffpairibias.t8 gnd.t190 gnd.t189 sky130_fd_pr__nfet_01v8 ad=2.73 pd=14.78 as=2.73 ps=14.78 w=7 l=1
X225 a_n3827_n3924.t36 plus.t14 a_n6972_8799.t25 gnd.t25 sky130_fd_pr__nfet_01v8 ad=1.155 pd=7.33 as=1.155 ps=7.33 w=7 l=0.5
X226 gnd.t329 commonsourceibias.t130 CSoutput.t153 gnd.t251 sky130_fd_pr__nfet_01v8 ad=1.155 pd=7.33 as=1.155 ps=7.33 w=7 l=1
X227 vdd.t46 vdd.t44 vdd.t45 vdd.t28 sky130_fd_pr__pfet_01v8_lvt ad=3.12 pd=16.78 as=0 ps=0 w=8 l=0.5
X228 vdd.t166 a_n1986_13878.t57 a_n1808_13878.t4 vdd.t165 sky130_fd_pr__pfet_01v8_lvt ad=1.485 pd=9.33 as=1.485 ps=9.33 w=9 l=0.5
X229 vdd.t232 CSoutput.t229 output.t10 gnd.t403 sky130_fd_pr__nfet_01v8_lvt ad=0.825 pd=5.33 as=0.825 ps=5.33 w=5 l=1
X230 a_n3827_n3924.t37 minus.t18 a_n1986_13878.t37 gnd.t53 sky130_fd_pr__nfet_01v8 ad=2.73 pd=14.78 as=1.155 ps=7.33 w=7 l=0.5
X231 gnd.t328 commonsourceibias.t131 CSoutput.t152 gnd.t229 sky130_fd_pr__nfet_01v8 ad=1.155 pd=7.33 as=1.155 ps=7.33 w=7 l=1
X232 CSoutput.t42 a_n6972_8799.t80 vdd.t142 vdd.t6 sky130_fd_pr__pfet_01v8_lvt ad=1.32 pd=8.33 as=1.32 ps=8.33 w=8 l=0.5
X233 a_n6972_8799.t27 plus.t15 a_n3827_n3924.t44 gnd.t52 sky130_fd_pr__nfet_01v8 ad=1.155 pd=7.33 as=2.73 ps=14.78 w=7 l=0.5
X234 commonsourceibias.t7 commonsourceibias.t6 gnd.t327 gnd.t316 sky130_fd_pr__nfet_01v8 ad=1.155 pd=7.33 as=1.155 ps=7.33 w=7 l=1
X235 vdd.t219 a_n6972_8799.t81 CSoutput.t68 vdd.t89 sky130_fd_pr__pfet_01v8_lvt ad=1.32 pd=8.33 as=1.32 ps=8.33 w=8 l=0.5
X236 diffpairibias.t7 diffpairibias.t6 gnd.t14 gnd.t13 sky130_fd_pr__nfet_01v8 ad=2.73 pd=14.78 as=2.73 ps=14.78 w=7 l=1
X237 CSoutput.t69 a_n6972_8799.t82 vdd.t220 vdd.t0 sky130_fd_pr__pfet_01v8_lvt ad=1.32 pd=8.33 as=1.32 ps=8.33 w=8 l=0.5
X238 gnd.t116 gnd.t113 gnd.t115 gnd.t114 sky130_fd_pr__nfet_01v8_lvt ad=1.95 pd=10.78 as=0 ps=0 w=5 l=1
X239 vdd.t139 a_n6972_8799.t83 CSoutput.t39 vdd.t2 sky130_fd_pr__pfet_01v8_lvt ad=3.12 pd=16.78 as=1.32 ps=8.33 w=8 l=0.5
X240 CSoutput.t151 commonsourceibias.t132 gnd.t326 gnd.t220 sky130_fd_pr__nfet_01v8 ad=1.155 pd=7.33 as=1.155 ps=7.33 w=7 l=1
X241 gnd.t112 gnd.t110 gnd.t111 gnd.t103 sky130_fd_pr__nfet_01v8 ad=2.73 pd=14.78 as=0 ps=0 w=7 l=1
X242 commonsourceibias.t5 commonsourceibias.t4 gnd.t325 gnd.t233 sky130_fd_pr__nfet_01v8 ad=1.155 pd=7.33 as=2.73 ps=14.78 w=7 l=1
X243 commonsourceibias.t3 commonsourceibias.t2 gnd.t324 gnd.t287 sky130_fd_pr__nfet_01v8 ad=1.155 pd=7.33 as=1.155 ps=7.33 w=7 l=1
X244 CSoutput.t40 a_n6972_8799.t84 vdd.t140 vdd.t112 sky130_fd_pr__pfet_01v8_lvt ad=1.32 pd=8.33 as=1.32 ps=8.33 w=8 l=0.5
X245 a_n1986_8322.t14 a_n1986_13878.t58 a_n6972_8799.t15 vdd.t164 sky130_fd_pr__pfet_01v8_lvt ad=1.485 pd=9.33 as=1.485 ps=9.33 w=9 l=0.5