* NGSPICE file created from opamp121.ext - technology: sky130A

.subckt opamp121 gnd CSoutput output vdd plus minus commonsourceibias outputibias
+ diffpairibias
X0 a_n1808_13878.t17 a_n1986_13878.t18 a_n1986_13878.t19 vdd.t182 sky130_fd_pr__pfet_01v8 ad=1.485 pd=9.33 as=1.485 ps=9.33 w=9 l=0.5
X1 a_n1808_13878.t4 a_n1986_13878.t44 vdd.t193 vdd.t192 sky130_fd_pr__pfet_01v8 ad=1.485 pd=9.33 as=1.485 ps=9.33 w=9 l=0.5
X2 CSoutput.t65 a_n5644_8799.t32 vdd.t1 vdd.t0 sky130_fd_pr__pfet_01v8 ad=1.32 pd=8.33 as=1.32 ps=8.33 w=8 l=0.5
X3 gnd.t114 gnd.t111 gnd.t113 gnd.t112 sky130_fd_pr__nfet_01v8 ad=2.34 pd=12.78 as=0 ps=0 w=6 l=2
X4 commonsourceibias.t47 commonsourceibias.t46 gnd.t203 gnd.t138 sky130_fd_pr__nfet_01v8 ad=1.155 pd=7.33 as=2.73 ps=14.78 w=7 l=1
X5 gnd.t140 commonsourceibias.t48 CSoutput.t10 gnd.t126 sky130_fd_pr__nfet_01v8 ad=1.155 pd=7.33 as=1.155 ps=7.33 w=7 l=1
X6 gnd.t110 gnd.t108 gnd.t109 gnd.t88 sky130_fd_pr__nfet_01v8 ad=2.73 pd=14.78 as=0 ps=0 w=7 l=1
X7 output.t19 outputibias.t8 gnd.t259 gnd.t258 sky130_fd_pr__nfet_01v8 ad=2.34 pd=12.78 as=2.34 ps=12.78 w=6 l=2
X8 output.t15 CSoutput.t96 vdd.t125 gnd.t178 sky130_fd_pr__nfet_01v8 ad=0.825 pd=5.33 as=0.825 ps=5.33 w=5 l=1
X9 vdd.t103 vdd.t101 vdd.t102 vdd.t55 sky130_fd_pr__pfet_01v8 ad=3.12 pd=16.78 as=0 ps=0 w=8 l=0.5
X10 gnd.t116 commonsourceibias.t49 CSoutput.t3 gnd.t115 sky130_fd_pr__nfet_01v8 ad=1.155 pd=7.33 as=1.155 ps=7.33 w=7 l=1
X11 gnd.t234 commonsourceibias.t44 commonsourceibias.t45 gnd.t196 sky130_fd_pr__nfet_01v8 ad=1.155 pd=7.33 as=1.155 ps=7.33 w=7 l=1
X12 a_n1986_8322.t21 a_n1986_13878.t45 a_n5644_8799.t25 vdd.t191 sky130_fd_pr__pfet_01v8 ad=1.485 pd=9.33 as=1.485 ps=9.33 w=9 l=0.5
X13 gnd.t197 commonsourceibias.t50 CSoutput.t66 gnd.t196 sky130_fd_pr__nfet_01v8 ad=1.155 pd=7.33 as=1.155 ps=7.33 w=7 l=1
X14 outputibias.t7 outputibias.t6 gnd.t229 gnd.t228 sky130_fd_pr__nfet_01v8 ad=2.34 pd=12.78 as=2.34 ps=12.78 w=6 l=2
X15 output.t14 CSoutput.t97 vdd.t115 gnd.t177 sky130_fd_pr__nfet_01v8 ad=1.95 pd=10.78 as=0.825 ps=5.33 w=5 l=1
X16 minus.t4 gnd.t105 gnd.t107 gnd.t106 sky130_fd_pr__nfet_01v8 ad=0.165 pd=1.33 as=0.165 ps=1.33 w=1 l=0.5
X17 gnd.t104 gnd.t102 plus.t4 gnd.t103 sky130_fd_pr__nfet_01v8 ad=0.39 pd=2.78 as=0.165 ps=1.33 w=1 l=0.5
X18 a_n5644_8799.t7 plus.t5 a_n2903_n3924.t22 gnd.t121 sky130_fd_pr__nfet_01v8 ad=1.155 pd=7.33 as=1.155 ps=7.33 w=7 l=0.5
X19 gnd.t153 commonsourceibias.t42 commonsourceibias.t43 gnd.t152 sky130_fd_pr__nfet_01v8 ad=1.155 pd=7.33 as=1.155 ps=7.33 w=7 l=1
X20 CSoutput.t64 a_n5644_8799.t33 vdd.t146 vdd.t15 sky130_fd_pr__pfet_01v8 ad=1.32 pd=8.33 as=3.12 ps=16.78 w=8 l=0.5
X21 vdd.t5 a_n5644_8799.t34 CSoutput.t63 vdd.t4 sky130_fd_pr__pfet_01v8 ad=3.12 pd=16.78 as=1.32 ps=8.33 w=8 l=0.5
X22 a_n5644_8799.t23 a_n1986_13878.t46 a_n1986_8322.t20 vdd.t151 sky130_fd_pr__pfet_01v8 ad=1.485 pd=9.33 as=3.51 ps=18.78 w=9 l=0.5
X23 vdd.t136 a_n5644_8799.t35 CSoutput.t62 vdd.t12 sky130_fd_pr__pfet_01v8 ad=1.32 pd=8.33 as=1.32 ps=8.33 w=8 l=0.5
X24 CSoutput.t61 a_n5644_8799.t36 vdd.t17 vdd.t10 sky130_fd_pr__pfet_01v8 ad=1.32 pd=8.33 as=3.12 ps=16.78 w=8 l=0.5
X25 a_n5644_8799.t30 plus.t6 a_n2903_n3924.t21 gnd.t183 sky130_fd_pr__nfet_01v8 ad=1.155 pd=7.33 as=1.155 ps=7.33 w=7 l=0.5
X26 CSoutput.t12 commonsourceibias.t51 gnd.t151 gnd.t150 sky130_fd_pr__nfet_01v8 ad=1.155 pd=7.33 as=1.155 ps=7.33 w=7 l=1
X27 CSoutput.t98 a_n1986_8322.t0 sky130_fd_pr__cap_mim_m3_1 l=12 w=12
X28 gnd.t149 commonsourceibias.t40 commonsourceibias.t41 gnd.t148 sky130_fd_pr__nfet_01v8 ad=1.155 pd=7.33 as=1.155 ps=7.33 w=7 l=1
X29 vdd.t100 vdd.t98 vdd.t99 vdd.t33 sky130_fd_pr__pfet_01v8 ad=3.12 pd=16.78 as=0 ps=0 w=8 l=0.5
X30 vdd.t116 CSoutput.t99 output.t13 gnd.t176 sky130_fd_pr__nfet_01v8 ad=0.825 pd=5.33 as=0.825 ps=5.33 w=5 l=1
X31 vdd.t112 CSoutput.t100 output.t12 gnd.t175 sky130_fd_pr__nfet_01v8 ad=0.825 pd=5.33 as=1.95 ps=10.78 w=5 l=1
X32 CSoutput.t60 a_n5644_8799.t37 vdd.t148 vdd.t138 sky130_fd_pr__pfet_01v8 ad=1.32 pd=8.33 as=1.32 ps=8.33 w=8 l=0.5
X33 a_n2903_n3924.t43 minus.t5 a_n1986_13878.t10 gnd.t184 sky130_fd_pr__nfet_01v8 ad=1.155 pd=7.33 as=1.155 ps=7.33 w=7 l=0.5
X34 CSoutput.t8 commonsourceibias.t52 gnd.t137 gnd.t136 sky130_fd_pr__nfet_01v8 ad=1.155 pd=7.33 as=1.155 ps=7.33 w=7 l=1
X35 a_n2903_n3924.t45 diffpairibias.t16 gnd.t276 gnd.t275 sky130_fd_pr__nfet_01v8 ad=2.73 pd=14.78 as=2.73 ps=14.78 w=7 l=1
X36 a_n1986_13878.t43 minus.t6 a_n2903_n3924.t42 gnd.t235 sky130_fd_pr__nfet_01v8 ad=1.155 pd=7.33 as=1.155 ps=7.33 w=7 l=0.5
X37 a_n2903_n3924.t20 plus.t7 a_n5644_8799.t15 gnd.t143 sky130_fd_pr__nfet_01v8 ad=1.155 pd=7.33 as=1.155 ps=7.33 w=7 l=0.5
X38 CSoutput.t88 commonsourceibias.t53 gnd.t270 gnd.t117 sky130_fd_pr__nfet_01v8 ad=1.155 pd=7.33 as=1.155 ps=7.33 w=7 l=1
X39 a_n2903_n3924.t19 plus.t8 a_n5644_8799.t14 gnd.t238 sky130_fd_pr__nfet_01v8 ad=1.155 pd=7.33 as=1.155 ps=7.33 w=7 l=0.5
X40 a_n2903_n3924.t41 minus.t7 a_n1986_13878.t42 gnd.t195 sky130_fd_pr__nfet_01v8 ad=1.155 pd=7.33 as=1.155 ps=7.33 w=7 l=0.5
X41 a_n1808_13878.t16 a_n1986_13878.t20 a_n1986_13878.t21 vdd.t158 sky130_fd_pr__pfet_01v8 ad=1.485 pd=9.33 as=3.51 ps=18.78 w=9 l=0.5
X42 a_n1986_13878.t27 a_n1986_13878.t26 a_n1808_13878.t15 vdd.t167 sky130_fd_pr__pfet_01v8 ad=1.485 pd=9.33 as=1.485 ps=9.33 w=9 l=0.5
X43 CSoutput.t59 a_n5644_8799.t38 vdd.t3 vdd.t2 sky130_fd_pr__pfet_01v8 ad=1.32 pd=8.33 as=1.32 ps=8.33 w=8 l=0.5
X44 vdd.t13 a_n5644_8799.t39 CSoutput.t58 vdd.t12 sky130_fd_pr__pfet_01v8 ad=1.32 pd=8.33 as=1.32 ps=8.33 w=8 l=0.5
X45 CSoutput.t9 commonsourceibias.t54 gnd.t139 gnd.t138 sky130_fd_pr__nfet_01v8 ad=1.155 pd=7.33 as=2.73 ps=14.78 w=7 l=1
X46 vdd.t97 vdd.t95 vdd.t96 vdd.t65 sky130_fd_pr__pfet_01v8 ad=3.51 pd=18.78 as=0 ps=0 w=9 l=0.5
X47 a_n2903_n3924.t40 minus.t8 a_n1986_13878.t11 gnd.t133 sky130_fd_pr__nfet_01v8 ad=1.155 pd=7.33 as=1.155 ps=7.33 w=7 l=0.5
X48 diffpairibias.t15 diffpairibias.t14 gnd.t285 gnd.t284 sky130_fd_pr__nfet_01v8 ad=2.73 pd=14.78 as=2.73 ps=14.78 w=7 l=1
X49 gnd.t96 gnd.t94 gnd.t95 gnd.t88 sky130_fd_pr__nfet_01v8 ad=2.73 pd=14.78 as=0 ps=0 w=7 l=1
X50 vdd.t94 vdd.t92 vdd.t93 vdd.t44 sky130_fd_pr__pfet_01v8 ad=3.12 pd=16.78 as=0 ps=0 w=8 l=0.5
X51 gnd.t101 gnd.t100 plus.t3 gnd.t32 sky130_fd_pr__nfet_01v8 ad=0.165 pd=1.33 as=0.165 ps=1.33 w=1 l=0.5
X52 gnd.t99 gnd.t97 gnd.t98 gnd.t32 sky130_fd_pr__nfet_01v8 ad=2.73 pd=14.78 as=0 ps=0 w=7 l=0.5
X53 vdd.t131 a_n5644_8799.t40 CSoutput.t57 vdd.t8 sky130_fd_pr__pfet_01v8 ad=1.32 pd=8.33 as=1.32 ps=8.33 w=8 l=0.5
X54 CSoutput.t56 a_n5644_8799.t41 vdd.t26 vdd.t10 sky130_fd_pr__pfet_01v8 ad=1.32 pd=8.33 as=3.12 ps=16.78 w=8 l=0.5
X55 vdd.t140 a_n5644_8799.t42 CSoutput.t55 vdd.t12 sky130_fd_pr__pfet_01v8 ad=1.32 pd=8.33 as=1.32 ps=8.33 w=8 l=0.5
X56 minus.t3 gnd.t91 gnd.t93 gnd.t92 sky130_fd_pr__nfet_01v8 ad=0.165 pd=1.33 as=0.165 ps=1.33 w=1 l=0.5
X57 gnd.t233 commonsourceibias.t55 CSoutput.t76 gnd.t115 sky130_fd_pr__nfet_01v8 ad=1.155 pd=7.33 as=1.155 ps=7.33 w=7 l=1
X58 gnd.t264 commonsourceibias.t56 CSoutput.t86 gnd.t201 sky130_fd_pr__nfet_01v8 ad=1.155 pd=7.33 as=1.155 ps=7.33 w=7 l=1
X59 diffpairibias.t13 diffpairibias.t12 gnd.t237 gnd.t236 sky130_fd_pr__nfet_01v8 ad=2.73 pd=14.78 as=2.73 ps=14.78 w=7 l=1
X60 output.t11 CSoutput.t101 vdd.t113 gnd.t174 sky130_fd_pr__nfet_01v8 ad=0.825 pd=5.33 as=0.825 ps=5.33 w=5 l=1
X61 gnd.t198 commonsourceibias.t57 CSoutput.t67 gnd.t148 sky130_fd_pr__nfet_01v8 ad=1.155 pd=7.33 as=1.155 ps=7.33 w=7 l=1
X62 commonsourceibias.t39 commonsourceibias.t38 gnd.t262 gnd.t150 sky130_fd_pr__nfet_01v8 ad=1.155 pd=7.33 as=1.155 ps=7.33 w=7 l=1
X63 vdd.t114 CSoutput.t102 output.t10 gnd.t173 sky130_fd_pr__nfet_01v8 ad=0.825 pd=5.33 as=0.825 ps=5.33 w=5 l=1
X64 CSoutput.t54 a_n5644_8799.t43 vdd.t133 vdd.t132 sky130_fd_pr__pfet_01v8 ad=1.32 pd=8.33 as=1.32 ps=8.33 w=8 l=0.5
X65 vdd.t130 a_n5644_8799.t44 CSoutput.t53 vdd.t105 sky130_fd_pr__pfet_01v8 ad=1.32 pd=8.33 as=1.32 ps=8.33 w=8 l=0.5
X66 CSoutput.t52 a_n5644_8799.t45 vdd.t149 vdd.t132 sky130_fd_pr__pfet_01v8 ad=1.32 pd=8.33 as=1.32 ps=8.33 w=8 l=0.5
X67 CSoutput.t51 a_n5644_8799.t46 vdd.t139 vdd.t138 sky130_fd_pr__pfet_01v8 ad=1.32 pd=8.33 as=1.32 ps=8.33 w=8 l=0.5
X68 vdd.t135 a_n5644_8799.t47 CSoutput.t50 vdd.t126 sky130_fd_pr__pfet_01v8 ad=1.32 pd=8.33 as=1.32 ps=8.33 w=8 l=0.5
X69 gnd.t154 commonsourceibias.t58 CSoutput.t13 gnd.t146 sky130_fd_pr__nfet_01v8 ad=1.155 pd=7.33 as=1.155 ps=7.33 w=7 l=1
X70 a_n5644_8799.t13 plus.t9 a_n2903_n3924.t18 gnd.t142 sky130_fd_pr__nfet_01v8 ad=1.155 pd=7.33 as=1.155 ps=7.33 w=7 l=0.5
X71 commonsourceibias.t37 commonsourceibias.t36 gnd.t271 gnd.t128 sky130_fd_pr__nfet_01v8 ad=1.155 pd=7.33 as=1.155 ps=7.33 w=7 l=1
X72 a_n2903_n3924.t46 diffpairibias.t17 gnd.t279 gnd.t278 sky130_fd_pr__nfet_01v8 ad=2.73 pd=14.78 as=2.73 ps=14.78 w=7 l=1
X73 gnd.t147 commonsourceibias.t34 commonsourceibias.t35 gnd.t146 sky130_fd_pr__nfet_01v8 ad=1.155 pd=7.33 as=1.155 ps=7.33 w=7 l=1
X74 vdd.t27 a_n5644_8799.t48 CSoutput.t49 vdd.t4 sky130_fd_pr__pfet_01v8 ad=3.12 pd=16.78 as=1.32 ps=8.33 w=8 l=0.5
X75 a_n5644_8799.t24 a_n1986_13878.t47 a_n1986_8322.t19 vdd.t181 sky130_fd_pr__pfet_01v8 ad=1.485 pd=9.33 as=1.485 ps=9.33 w=9 l=0.5
X76 a_n1986_13878.t37 a_n1986_13878.t36 a_n1808_13878.t14 vdd.t191 sky130_fd_pr__pfet_01v8 ad=1.485 pd=9.33 as=1.485 ps=9.33 w=9 l=0.5
X77 a_n2903_n3924.t39 minus.t9 a_n1986_13878.t15 gnd.t186 sky130_fd_pr__nfet_01v8 ad=1.155 pd=7.33 as=1.155 ps=7.33 w=7 l=0.5
X78 a_n1986_13878.t39 a_n1986_13878.t38 a_n1808_13878.t13 vdd.t154 sky130_fd_pr__pfet_01v8 ad=3.51 pd=18.78 as=1.485 ps=9.33 w=9 l=0.5
X79 vdd.t143 a_n5644_8799.t49 CSoutput.t48 vdd.t126 sky130_fd_pr__pfet_01v8 ad=1.32 pd=8.33 as=1.32 ps=8.33 w=8 l=0.5
X80 a_n2903_n3924.t17 plus.t10 a_n5644_8799.t8 gnd.t210 sky130_fd_pr__nfet_01v8 ad=1.155 pd=7.33 as=1.155 ps=7.33 w=7 l=0.5
X81 a_n1986_13878.t41 minus.t10 a_n2903_n3924.t38 gnd.t230 sky130_fd_pr__nfet_01v8 ad=1.155 pd=7.33 as=1.155 ps=7.33 w=7 l=0.5
X82 gnd.t269 commonsourceibias.t32 commonsourceibias.t33 gnd.t265 sky130_fd_pr__nfet_01v8 ad=2.73 pd=14.78 as=1.155 ps=7.33 w=7 l=1
X83 commonsourceibias.t31 commonsourceibias.t30 gnd.t240 gnd.t117 sky130_fd_pr__nfet_01v8 ad=1.155 pd=7.33 as=1.155 ps=7.33 w=7 l=1
X84 outputibias.t5 outputibias.t4 gnd.t248 gnd.t247 sky130_fd_pr__nfet_01v8 ad=2.34 pd=12.78 as=2.34 ps=12.78 w=6 l=2
X85 vdd.t91 vdd.t89 vdd.t90 vdd.t44 sky130_fd_pr__pfet_01v8 ad=3.12 pd=16.78 as=0 ps=0 w=8 l=0.5
X86 CSoutput.t16 commonsourceibias.t59 gnd.t191 gnd.t136 sky130_fd_pr__nfet_01v8 ad=1.155 pd=7.33 as=1.155 ps=7.33 w=7 l=1
X87 a_n2903_n3924.t37 minus.t11 a_n1986_13878.t8 gnd.t157 sky130_fd_pr__nfet_01v8 ad=2.73 pd=14.78 as=1.155 ps=7.33 w=7 l=0.5
X88 vdd.t22 CSoutput.t103 output.t9 gnd.t172 sky130_fd_pr__nfet_01v8 ad=0.825 pd=5.33 as=0.825 ps=5.33 w=5 l=1
X89 vdd.t137 a_n5644_8799.t50 CSoutput.t47 vdd.t8 sky130_fd_pr__pfet_01v8 ad=1.32 pd=8.33 as=1.32 ps=8.33 w=8 l=0.5
X90 vdd.t88 vdd.t86 vdd.t87 vdd.t73 sky130_fd_pr__pfet_01v8 ad=3.51 pd=18.78 as=0 ps=0 w=9 l=0.5
X91 CSoutput.t89 commonsourceibias.t60 gnd.t272 gnd.t267 sky130_fd_pr__nfet_01v8 ad=1.155 pd=7.33 as=1.155 ps=7.33 w=7 l=1
X92 vdd.t85 vdd.t82 vdd.t84 vdd.t83 sky130_fd_pr__pfet_01v8 ad=3.51 pd=18.78 as=0 ps=0 w=9 l=0.5
X93 gnd.t266 commonsourceibias.t61 CSoutput.t87 gnd.t265 sky130_fd_pr__nfet_01v8 ad=2.73 pd=14.78 as=1.155 ps=7.33 w=7 l=1
X94 gnd.t90 gnd.t87 gnd.t89 gnd.t88 sky130_fd_pr__nfet_01v8 ad=2.73 pd=14.78 as=0 ps=0 w=7 l=1
X95 commonsourceibias.t29 commonsourceibias.t28 gnd.t250 gnd.t218 sky130_fd_pr__nfet_01v8 ad=1.155 pd=7.33 as=1.155 ps=7.33 w=7 l=1
X96 vdd.t81 vdd.t79 vdd.t80 vdd.t69 sky130_fd_pr__pfet_01v8 ad=3.51 pd=18.78 as=0 ps=0 w=9 l=0.5
X97 vdd.t78 vdd.t76 vdd.t77 vdd.t29 sky130_fd_pr__pfet_01v8 ad=3.51 pd=18.78 as=0 ps=0 w=9 l=0.5
X98 CSoutput.t84 commonsourceibias.t62 gnd.t253 gnd.t138 sky130_fd_pr__nfet_01v8 ad=1.155 pd=7.33 as=2.73 ps=14.78 w=7 l=1
X99 CSoutput.t104 a_n1986_8322.t1 sky130_fd_pr__cap_mim_m3_1 l=12 w=12
X100 outputibias.t3 outputibias.t2 gnd.t209 gnd.t208 sky130_fd_pr__nfet_01v8 ad=2.34 pd=12.78 as=2.34 ps=12.78 w=6 l=2
X101 a_n1986_8322.t9 a_n1986_13878.t48 vdd.t190 vdd.t189 sky130_fd_pr__pfet_01v8 ad=1.485 pd=9.33 as=1.485 ps=9.33 w=9 l=0.5
X102 vdd.t188 a_n1986_13878.t49 a_n1986_8322.t8 vdd.t187 sky130_fd_pr__pfet_01v8 ad=1.485 pd=9.33 as=1.485 ps=9.33 w=9 l=0.5
X103 CSoutput.t46 a_n5644_8799.t51 vdd.t196 vdd.t132 sky130_fd_pr__pfet_01v8 ad=1.32 pd=8.33 as=1.32 ps=8.33 w=8 l=0.5
X104 a_n1986_13878.t5 minus.t12 a_n2903_n3924.t36 gnd.t145 sky130_fd_pr__nfet_01v8 ad=1.155 pd=7.33 as=1.155 ps=7.33 w=7 l=0.5
X105 a_n2903_n3924.t47 diffpairibias.t18 gnd.t283 gnd.t282 sky130_fd_pr__nfet_01v8 ad=2.73 pd=14.78 as=2.73 ps=14.78 w=7 l=1
X106 vdd.t127 a_n5644_8799.t52 CSoutput.t45 vdd.t126 sky130_fd_pr__pfet_01v8 ad=1.32 pd=8.33 as=1.32 ps=8.33 w=8 l=0.5
X107 commonsourceibias.t27 commonsourceibias.t26 gnd.t268 gnd.t267 sky130_fd_pr__nfet_01v8 ad=1.155 pd=7.33 as=1.155 ps=7.33 w=7 l=1
X108 vdd.t186 a_n1986_13878.t50 a_n1808_13878.t0 vdd.t185 sky130_fd_pr__pfet_01v8 ad=1.485 pd=9.33 as=1.485 ps=9.33 w=9 l=0.5
X109 a_n2903_n3924.t16 plus.t11 a_n5644_8799.t4 gnd.t192 sky130_fd_pr__nfet_01v8 ad=1.155 pd=7.33 as=1.155 ps=7.33 w=7 l=0.5
X110 vdd.t75 vdd.t72 vdd.t74 vdd.t73 sky130_fd_pr__pfet_01v8 ad=3.51 pd=18.78 as=0 ps=0 w=9 l=0.5
X111 vdd.t71 vdd.t68 vdd.t70 vdd.t69 sky130_fd_pr__pfet_01v8 ad=3.51 pd=18.78 as=0 ps=0 w=9 l=0.5
X112 vdd.t197 a_n5644_8799.t53 CSoutput.t44 vdd.t4 sky130_fd_pr__pfet_01v8 ad=3.12 pd=16.78 as=1.32 ps=8.33 w=8 l=0.5
X113 gnd.t221 commonsourceibias.t24 commonsourceibias.t25 gnd.t115 sky130_fd_pr__nfet_01v8 ad=1.155 pd=7.33 as=1.155 ps=7.33 w=7 l=1
X114 gnd.t239 commonsourceibias.t63 CSoutput.t77 gnd.t201 sky130_fd_pr__nfet_01v8 ad=1.155 pd=7.33 as=1.155 ps=7.33 w=7 l=1
X115 a_n5644_8799.t26 a_n1986_13878.t51 a_n1986_8322.t18 vdd.t159 sky130_fd_pr__pfet_01v8 ad=1.485 pd=9.33 as=1.485 ps=9.33 w=9 l=0.5
X116 a_n1986_8322.t7 a_n1986_13878.t52 vdd.t184 vdd.t183 sky130_fd_pr__pfet_01v8 ad=3.51 pd=18.78 as=1.485 ps=9.33 w=9 l=0.5
X117 vdd.t67 vdd.t64 vdd.t66 vdd.t65 sky130_fd_pr__pfet_01v8 ad=3.51 pd=18.78 as=0 ps=0 w=9 l=0.5
X118 gnd.t286 commonsourceibias.t64 CSoutput.t95 gnd.t148 sky130_fd_pr__nfet_01v8 ad=1.155 pd=7.33 as=1.155 ps=7.33 w=7 l=1
X119 a_n1986_13878.t4 minus.t13 a_n2903_n3924.t35 gnd.t144 sky130_fd_pr__nfet_01v8 ad=1.155 pd=7.33 as=1.155 ps=7.33 w=7 l=0.5
X120 a_n5644_8799.t1 plus.t12 a_n2903_n3924.t15 gnd.t132 sky130_fd_pr__nfet_01v8 ad=1.155 pd=7.33 as=2.73 ps=14.78 w=7 l=0.5
X121 gnd.t207 commonsourceibias.t65 CSoutput.t71 gnd.t206 sky130_fd_pr__nfet_01v8 ad=2.73 pd=14.78 as=1.155 ps=7.33 w=7 l=1
X122 a_n1986_13878.t35 a_n1986_13878.t34 a_n1808_13878.t12 vdd.t170 sky130_fd_pr__pfet_01v8 ad=1.485 pd=9.33 as=1.485 ps=9.33 w=9 l=0.5
X123 diffpairibias.t11 diffpairibias.t10 gnd.t225 gnd.t224 sky130_fd_pr__nfet_01v8 ad=2.73 pd=14.78 as=2.73 ps=14.78 w=7 l=1
X124 a_n5644_8799.t28 a_n1986_13878.t53 a_n1986_8322.t17 vdd.t182 sky130_fd_pr__pfet_01v8 ad=1.485 pd=9.33 as=1.485 ps=9.33 w=9 l=0.5
X125 gnd.t161 commonsourceibias.t66 CSoutput.t14 gnd.t160 sky130_fd_pr__nfet_01v8 ad=1.155 pd=7.33 as=1.155 ps=7.33 w=7 l=1
X126 a_n1808_13878.t11 a_n1986_13878.t30 a_n1986_13878.t31 vdd.t181 sky130_fd_pr__pfet_01v8 ad=1.485 pd=9.33 as=1.485 ps=9.33 w=9 l=0.5
X127 outputibias.t1 outputibias.t0 gnd.t120 gnd.t119 sky130_fd_pr__nfet_01v8 ad=2.34 pd=12.78 as=2.34 ps=12.78 w=6 l=2
X128 plus.t2 gnd.t84 gnd.t86 gnd.t85 sky130_fd_pr__nfet_01v8 ad=0.165 pd=1.33 as=0.165 ps=1.33 w=1 l=0.5
X129 gnd.t245 commonsourceibias.t67 CSoutput.t81 gnd.t146 sky130_fd_pr__nfet_01v8 ad=1.155 pd=7.33 as=1.155 ps=7.33 w=7 l=1
X130 CSoutput.t105 a_n1986_8322.t1 sky130_fd_pr__cap_mim_m3_1 l=12 w=12
X131 vdd.t180 a_n1986_13878.t54 a_n1986_8322.t6 vdd.t179 sky130_fd_pr__pfet_01v8 ad=1.485 pd=9.33 as=3.51 ps=18.78 w=9 l=0.5
X132 gnd.t83 gnd.t81 minus.t2 gnd.t82 sky130_fd_pr__nfet_01v8 ad=0.39 pd=2.78 as=0.165 ps=1.33 w=1 l=0.5
X133 CSoutput.t5 commonsourceibias.t68 gnd.t125 gnd.t6 sky130_fd_pr__nfet_01v8 ad=1.155 pd=7.33 as=1.155 ps=7.33 w=7 l=1
X134 a_n1986_13878.t7 minus.t14 a_n2903_n3924.t34 gnd.t156 sky130_fd_pr__nfet_01v8 ad=1.155 pd=7.33 as=1.155 ps=7.33 w=7 l=0.5
X135 CSoutput.t106 a_n1986_8322.t0 sky130_fd_pr__cap_mim_m3_1 l=12 w=12
X136 vdd.t63 vdd.t61 vdd.t62 vdd.t55 sky130_fd_pr__pfet_01v8 ad=3.12 pd=16.78 as=0 ps=0 w=8 l=0.5
X137 CSoutput.t43 a_n5644_8799.t54 vdd.t14 vdd.t2 sky130_fd_pr__pfet_01v8 ad=1.32 pd=8.33 as=1.32 ps=8.33 w=8 l=0.5
X138 vdd.t147 a_n5644_8799.t55 CSoutput.t42 vdd.t110 sky130_fd_pr__pfet_01v8 ad=3.12 pd=16.78 as=1.32 ps=8.33 w=8 l=0.5
X139 gnd.t80 gnd.t77 gnd.t79 gnd.t78 sky130_fd_pr__nfet_01v8 ad=2.73 pd=14.78 as=0 ps=0 w=7 l=1
X140 a_n2903_n3924.t23 diffpairibias.t19 gnd.t223 gnd.t222 sky130_fd_pr__nfet_01v8 ad=2.73 pd=14.78 as=2.73 ps=14.78 w=7 l=1
X141 CSoutput.t92 commonsourceibias.t69 gnd.t277 gnd.t267 sky130_fd_pr__nfet_01v8 ad=1.155 pd=7.33 as=1.155 ps=7.33 w=7 l=1
X142 a_n1986_13878.t0 minus.t15 a_n2903_n3924.t33 gnd.t121 sky130_fd_pr__nfet_01v8 ad=1.155 pd=7.33 as=1.155 ps=7.33 w=7 l=0.5
X143 CSoutput.t69 commonsourceibias.t70 gnd.t204 gnd.t158 sky130_fd_pr__nfet_01v8 ad=1.155 pd=7.33 as=1.155 ps=7.33 w=7 l=1
X144 a_n2903_n3924.t0 diffpairibias.t20 gnd.t124 gnd.t123 sky130_fd_pr__nfet_01v8 ad=2.73 pd=14.78 as=2.73 ps=14.78 w=7 l=1
X145 vdd.t23 CSoutput.t107 output.t8 gnd.t171 sky130_fd_pr__nfet_01v8 ad=0.825 pd=5.33 as=0.825 ps=5.33 w=5 l=1
X146 vdd.t7 a_n5644_8799.t56 CSoutput.t41 vdd.t6 sky130_fd_pr__pfet_01v8 ad=1.32 pd=8.33 as=1.32 ps=8.33 w=8 l=0.5
X147 gnd.t280 commonsourceibias.t71 CSoutput.t93 gnd.t265 sky130_fd_pr__nfet_01v8 ad=2.73 pd=14.78 as=1.155 ps=7.33 w=7 l=1
X148 gnd.t76 gnd.t74 minus.t1 gnd.t75 sky130_fd_pr__nfet_01v8 ad=0.165 pd=1.33 as=0.39 ps=2.78 w=1 l=0.5
X149 CSoutput.t70 commonsourceibias.t72 gnd.t205 gnd.t193 sky130_fd_pr__nfet_01v8 ad=1.155 pd=7.33 as=1.155 ps=7.33 w=7 l=1
X150 gnd.t73 gnd.t71 gnd.t72 gnd.t20 sky130_fd_pr__nfet_01v8 ad=2.73 pd=14.78 as=0 ps=0 w=7 l=0.5
X151 CSoutput.t40 a_n5644_8799.t57 vdd.t142 vdd.t141 sky130_fd_pr__pfet_01v8 ad=1.32 pd=8.33 as=1.32 ps=8.33 w=8 l=0.5
X152 a_n1986_13878.t9 minus.t16 a_n2903_n3924.t32 gnd.t183 sky130_fd_pr__nfet_01v8 ad=1.155 pd=7.33 as=1.155 ps=7.33 w=7 l=0.5
X153 a_n1808_13878.t2 a_n1986_13878.t55 vdd.t178 vdd.t177 sky130_fd_pr__pfet_01v8 ad=1.485 pd=9.33 as=1.485 ps=9.33 w=9 l=0.5
X154 gnd.t70 gnd.t68 gnd.t69 gnd.t28 sky130_fd_pr__nfet_01v8 ad=2.73 pd=14.78 as=0 ps=0 w=7 l=1
X155 diffpairibias.t9 diffpairibias.t8 gnd.t214 gnd.t213 sky130_fd_pr__nfet_01v8 ad=2.73 pd=14.78 as=2.73 ps=14.78 w=7 l=1
X156 vdd.t60 vdd.t58 vdd.t59 vdd.t40 sky130_fd_pr__pfet_01v8 ad=3.12 pd=16.78 as=0 ps=0 w=8 l=0.5
X157 vdd.t176 a_n1986_13878.t56 a_n1808_13878.t1 vdd.t175 sky130_fd_pr__pfet_01v8 ad=1.485 pd=9.33 as=1.485 ps=9.33 w=9 l=0.5
X158 a_n2903_n3924.t14 plus.t13 a_n5644_8799.t9 gnd.t184 sky130_fd_pr__nfet_01v8 ad=1.155 pd=7.33 as=1.155 ps=7.33 w=7 l=0.5
X159 vdd.t57 vdd.t54 vdd.t56 vdd.t55 sky130_fd_pr__pfet_01v8 ad=3.12 pd=16.78 as=0 ps=0 w=8 l=0.5
X160 CSoutput.t11 commonsourceibias.t73 gnd.t141 gnd.t130 sky130_fd_pr__nfet_01v8 ad=1.155 pd=7.33 as=2.73 ps=14.78 w=7 l=1
X161 gnd.t241 commonsourceibias.t74 CSoutput.t78 gnd.t152 sky130_fd_pr__nfet_01v8 ad=1.155 pd=7.33 as=1.155 ps=7.33 w=7 l=1
X162 a_n2903_n3924.t31 minus.t17 a_n1986_13878.t40 gnd.t238 sky130_fd_pr__nfet_01v8 ad=1.155 pd=7.33 as=1.155 ps=7.33 w=7 l=0.5
X163 a_n2903_n3924.t13 plus.t14 a_n5644_8799.t6 gnd.t195 sky130_fd_pr__nfet_01v8 ad=1.155 pd=7.33 as=1.155 ps=7.33 w=7 l=0.5
X164 gnd.t251 commonsourceibias.t22 commonsourceibias.t23 gnd.t215 sky130_fd_pr__nfet_01v8 ad=1.155 pd=7.33 as=1.155 ps=7.33 w=7 l=1
X165 gnd.t257 commonsourceibias.t75 CSoutput.t85 gnd.t206 sky130_fd_pr__nfet_01v8 ad=2.73 pd=14.78 as=1.155 ps=7.33 w=7 l=1
X166 CSoutput.t39 a_n5644_8799.t58 vdd.t198 vdd.t2 sky130_fd_pr__pfet_01v8 ad=1.32 pd=8.33 as=1.32 ps=8.33 w=8 l=0.5
X167 vdd.t122 a_n5644_8799.t59 CSoutput.t38 vdd.t110 sky130_fd_pr__pfet_01v8 ad=3.12 pd=16.78 as=1.32 ps=8.33 w=8 l=0.5
X168 a_n5644_8799.t0 plus.t15 a_n2903_n3924.t12 gnd.t122 sky130_fd_pr__nfet_01v8 ad=1.155 pd=7.33 as=2.73 ps=14.78 w=7 l=0.5
X169 a_n2903_n3924.t30 minus.t18 a_n1986_13878.t6 gnd.t155 sky130_fd_pr__nfet_01v8 ad=2.73 pd=14.78 as=1.155 ps=7.33 w=7 l=0.5
X170 a_n1986_8322.t16 a_n1986_13878.t57 a_n5644_8799.t18 vdd.t150 sky130_fd_pr__pfet_01v8 ad=1.485 pd=9.33 as=1.485 ps=9.33 w=9 l=0.5
X171 gnd.t220 commonsourceibias.t76 CSoutput.t75 gnd.t160 sky130_fd_pr__nfet_01v8 ad=1.155 pd=7.33 as=1.155 ps=7.33 w=7 l=1
X172 CSoutput.t37 a_n5644_8799.t60 vdd.t21 vdd.t20 sky130_fd_pr__pfet_01v8 ad=1.32 pd=8.33 as=1.32 ps=8.33 w=8 l=0.5
X173 diffpairibias.t7 diffpairibias.t6 gnd.t227 gnd.t226 sky130_fd_pr__nfet_01v8 ad=2.73 pd=14.78 as=2.73 ps=14.78 w=7 l=1
X174 vdd.t108 a_n5644_8799.t61 CSoutput.t36 vdd.t6 sky130_fd_pr__pfet_01v8 ad=1.32 pd=8.33 as=1.32 ps=8.33 w=8 l=0.5
X175 vdd.t174 a_n1986_13878.t58 a_n1986_8322.t5 vdd.t173 sky130_fd_pr__pfet_01v8 ad=1.485 pd=9.33 as=3.51 ps=18.78 w=9 l=0.5
X176 vdd.t9 a_n5644_8799.t62 CSoutput.t35 vdd.t8 sky130_fd_pr__pfet_01v8 ad=1.32 pd=8.33 as=1.32 ps=8.33 w=8 l=0.5
X177 gnd.t244 commonsourceibias.t20 commonsourceibias.t21 gnd.t160 sky130_fd_pr__nfet_01v8 ad=1.155 pd=7.33 as=1.155 ps=7.33 w=7 l=1
X178 CSoutput.t6 commonsourceibias.t77 gnd.t129 gnd.t128 sky130_fd_pr__nfet_01v8 ad=1.155 pd=7.33 as=1.155 ps=7.33 w=7 l=1
X179 gnd.t61 gnd.t59 gnd.t60 gnd.t28 sky130_fd_pr__nfet_01v8 ad=2.73 pd=14.78 as=0 ps=0 w=7 l=1
X180 gnd.t67 gnd.t65 gnd.t66 gnd.t16 sky130_fd_pr__nfet_01v8 ad=2.73 pd=14.78 as=0 ps=0 w=7 l=1
X181 CSoutput.t2 commonsourceibias.t78 gnd.t7 gnd.t6 sky130_fd_pr__nfet_01v8 ad=1.155 pd=7.33 as=1.155 ps=7.33 w=7 l=1
X182 a_n1808_13878.t3 a_n1986_13878.t59 vdd.t172 vdd.t171 sky130_fd_pr__pfet_01v8 ad=3.51 pd=18.78 as=1.485 ps=9.33 w=9 l=0.5
X183 plus.t1 gnd.t62 gnd.t64 gnd.t63 sky130_fd_pr__nfet_01v8 ad=0.165 pd=1.33 as=0.165 ps=1.33 w=1 l=0.5
X184 CSoutput.t34 a_n5644_8799.t63 vdd.t16 vdd.t15 sky130_fd_pr__pfet_01v8 ad=1.32 pd=8.33 as=3.12 ps=16.78 w=8 l=0.5
X185 CSoutput.t33 a_n5644_8799.t64 vdd.t144 vdd.t141 sky130_fd_pr__pfet_01v8 ad=1.32 pd=8.33 as=1.32 ps=8.33 w=8 l=0.5
X186 gnd.t58 gnd.t56 minus.t0 gnd.t57 sky130_fd_pr__nfet_01v8 ad=0.165 pd=1.33 as=0.165 ps=1.33 w=1 l=0.5
X187 gnd.t246 commonsourceibias.t18 commonsourceibias.t19 gnd.t4 sky130_fd_pr__nfet_01v8 ad=1.155 pd=7.33 as=1.155 ps=7.33 w=7 l=1
X188 vdd.t53 vdd.t51 vdd.t52 vdd.t40 sky130_fd_pr__pfet_01v8 ad=3.12 pd=16.78 as=0 ps=0 w=8 l=0.5
X189 gnd.t55 gnd.t52 gnd.t54 gnd.t53 sky130_fd_pr__nfet_01v8 ad=2.73 pd=14.78 as=0 ps=0 w=7 l=1
X190 a_n1986_8322.t15 a_n1986_13878.t60 a_n5644_8799.t21 vdd.t170 sky130_fd_pr__pfet_01v8 ad=1.485 pd=9.33 as=1.485 ps=9.33 w=9 l=0.5
X191 vdd.t169 a_n1986_13878.t61 a_n1986_8322.t4 vdd.t168 sky130_fd_pr__pfet_01v8 ad=1.485 pd=9.33 as=1.485 ps=9.33 w=9 l=0.5
X192 CSoutput.t32 a_n5644_8799.t65 vdd.t195 vdd.t141 sky130_fd_pr__pfet_01v8 ad=1.32 pd=8.33 as=1.32 ps=8.33 w=8 l=0.5
X193 CSoutput.t80 commonsourceibias.t79 gnd.t243 gnd.t218 sky130_fd_pr__nfet_01v8 ad=1.155 pd=7.33 as=1.155 ps=7.33 w=7 l=1
X194 a_n2903_n3924.t1 diffpairibias.t21 gnd.t135 gnd.t134 sky130_fd_pr__nfet_01v8 ad=2.73 pd=14.78 as=2.73 ps=14.78 w=7 l=1
X195 output.t7 CSoutput.t108 vdd.t24 gnd.t170 sky130_fd_pr__nfet_01v8 ad=0.825 pd=5.33 as=0.825 ps=5.33 w=5 l=1
X196 vdd.t19 a_n5644_8799.t66 CSoutput.t31 vdd.t18 sky130_fd_pr__pfet_01v8 ad=1.32 pd=8.33 as=1.32 ps=8.33 w=8 l=0.5
X197 CSoutput.t15 commonsourceibias.t80 gnd.t162 gnd.t158 sky130_fd_pr__nfet_01v8 ad=1.155 pd=7.33 as=1.155 ps=7.33 w=7 l=1
X198 CSoutput.t109 a_n1986_8322.t1 sky130_fd_pr__cap_mim_m3_1 l=12 w=12
X199 CSoutput.t17 commonsourceibias.t81 gnd.t194 gnd.t193 sky130_fd_pr__nfet_01v8 ad=1.155 pd=7.33 as=1.155 ps=7.33 w=7 l=1
X200 gnd.t5 commonsourceibias.t82 CSoutput.t1 gnd.t4 sky130_fd_pr__nfet_01v8 ad=1.155 pd=7.33 as=1.155 ps=7.33 w=7 l=1
X201 output.t18 outputibias.t9 gnd.t180 gnd.t179 sky130_fd_pr__nfet_01v8 ad=2.34 pd=12.78 as=2.34 ps=12.78 w=6 l=2
X202 output.t6 CSoutput.t110 vdd.t123 gnd.t169 sky130_fd_pr__nfet_01v8 ad=0.825 pd=5.33 as=0.825 ps=5.33 w=5 l=1
X203 vdd.t50 vdd.t47 vdd.t49 vdd.t48 sky130_fd_pr__pfet_01v8 ad=3.51 pd=18.78 as=0 ps=0 w=9 l=0.5
X204 vdd.t46 vdd.t43 vdd.t45 vdd.t44 sky130_fd_pr__pfet_01v8 ad=3.12 pd=16.78 as=0 ps=0 w=8 l=0.5
X205 a_n2903_n3924.t11 plus.t16 a_n5644_8799.t3 gnd.t186 sky130_fd_pr__nfet_01v8 ad=1.155 pd=7.33 as=1.155 ps=7.33 w=7 l=0.5
X206 gnd.t51 gnd.t49 gnd.t50 gnd.t24 sky130_fd_pr__nfet_01v8 ad=2.73 pd=14.78 as=0 ps=0 w=7 l=1
X207 a_n1808_13878.t10 a_n1986_13878.t16 a_n1986_13878.t17 vdd.t162 sky130_fd_pr__pfet_01v8 ad=1.485 pd=9.33 as=1.485 ps=9.33 w=9 l=0.5
X208 a_n2903_n3924.t29 minus.t19 a_n1986_13878.t13 gnd.t210 sky130_fd_pr__nfet_01v8 ad=1.155 pd=7.33 as=1.155 ps=7.33 w=7 l=0.5
X209 a_n5644_8799.t11 plus.t17 a_n2903_n3924.t10 gnd.t230 sky130_fd_pr__nfet_01v8 ad=1.155 pd=7.33 as=1.155 ps=7.33 w=7 l=0.5
X210 a_n1986_8322.t14 a_n1986_13878.t62 a_n5644_8799.t19 vdd.t167 sky130_fd_pr__pfet_01v8 ad=1.485 pd=9.33 as=1.485 ps=9.33 w=9 l=0.5
X211 gnd.t48 gnd.t46 gnd.t47 gnd.t24 sky130_fd_pr__nfet_01v8 ad=2.73 pd=14.78 as=0 ps=0 w=7 l=1
X212 output.t17 outputibias.t10 gnd.t261 gnd.t260 sky130_fd_pr__nfet_01v8 ad=2.34 pd=12.78 as=2.34 ps=12.78 w=6 l=2
X213 diffpairibias.t5 diffpairibias.t4 gnd.t212 gnd.t211 sky130_fd_pr__nfet_01v8 ad=2.73 pd=14.78 as=2.73 ps=14.78 w=7 l=1
X214 a_n5644_8799.t12 plus.t18 a_n2903_n3924.t9 gnd.t235 sky130_fd_pr__nfet_01v8 ad=1.155 pd=7.33 as=1.155 ps=7.33 w=7 l=0.5
X215 a_n2903_n3924.t28 minus.t20 a_n1986_13878.t3 gnd.t143 sky130_fd_pr__nfet_01v8 ad=1.155 pd=7.33 as=1.155 ps=7.33 w=7 l=0.5
X216 gnd.t199 commonsourceibias.t83 CSoutput.t68 gnd.t152 sky130_fd_pr__nfet_01v8 ad=1.155 pd=7.33 as=1.155 ps=7.33 w=7 l=1
X217 CSoutput.t7 commonsourceibias.t84 gnd.t131 gnd.t130 sky130_fd_pr__nfet_01v8 ad=1.155 pd=7.33 as=2.73 ps=14.78 w=7 l=1
X218 CSoutput.t30 a_n5644_8799.t67 vdd.t194 vdd.t15 sky130_fd_pr__pfet_01v8 ad=1.32 pd=8.33 as=3.12 ps=16.78 w=8 l=0.5
X219 a_n1986_8322.t3 a_n1986_13878.t63 vdd.t166 vdd.t165 sky130_fd_pr__pfet_01v8 ad=3.51 pd=18.78 as=1.485 ps=9.33 w=9 l=0.5
X220 gnd.t249 commonsourceibias.t85 CSoutput.t82 gnd.t215 sky130_fd_pr__nfet_01v8 ad=1.155 pd=7.33 as=1.155 ps=7.33 w=7 l=1
X221 gnd.t256 commonsourceibias.t16 commonsourceibias.t17 gnd.t206 sky130_fd_pr__nfet_01v8 ad=2.73 pd=14.78 as=1.155 ps=7.33 w=7 l=1
X222 output.t5 CSoutput.t111 vdd.t124 gnd.t168 sky130_fd_pr__nfet_01v8 ad=0.825 pd=5.33 as=0.825 ps=5.33 w=5 l=1
X223 a_n2903_n3924.t8 plus.t19 a_n5644_8799.t2 gnd.t133 sky130_fd_pr__nfet_01v8 ad=1.155 pd=7.33 as=1.155 ps=7.33 w=7 l=0.5
X224 gnd.t45 gnd.t42 gnd.t44 gnd.t43 sky130_fd_pr__nfet_01v8 ad=2.34 pd=12.78 as=0 ps=0 w=6 l=2
X225 vdd.t164 a_n1986_13878.t64 a_n1808_13878.t18 vdd.t163 sky130_fd_pr__pfet_01v8 ad=1.485 pd=9.33 as=3.51 ps=18.78 w=9 l=0.5
X226 gnd.t41 gnd.t38 gnd.t40 gnd.t39 sky130_fd_pr__nfet_01v8 ad=1.95 pd=10.78 as=0 ps=0 w=5 l=1
X227 vdd.t42 vdd.t39 vdd.t41 vdd.t40 sky130_fd_pr__pfet_01v8 ad=3.12 pd=16.78 as=0 ps=0 w=8 l=0.5
X228 gnd.t37 gnd.t35 gnd.t36 gnd.t16 sky130_fd_pr__nfet_01v8 ad=2.73 pd=14.78 as=0 ps=0 w=7 l=1
X229 CSoutput.t91 commonsourceibias.t86 gnd.t274 gnd.t128 sky130_fd_pr__nfet_01v8 ad=1.155 pd=7.33 as=1.155 ps=7.33 w=7 l=1
X230 gnd.t34 gnd.t31 gnd.t33 gnd.t32 sky130_fd_pr__nfet_01v8 ad=2.73 pd=14.78 as=0 ps=0 w=7 l=0.5
X231 CSoutput.t90 commonsourceibias.t87 gnd.t273 gnd.t2 sky130_fd_pr__nfet_01v8 ad=1.155 pd=7.33 as=1.155 ps=7.33 w=7 l=1
X232 gnd.t30 gnd.t27 gnd.t29 gnd.t28 sky130_fd_pr__nfet_01v8 ad=2.73 pd=14.78 as=0 ps=0 w=7 l=1
X233 vdd.t117 CSoutput.t112 output.t4 gnd.t167 sky130_fd_pr__nfet_01v8 ad=0.825 pd=5.33 as=0.825 ps=5.33 w=5 l=1
X234 a_n2903_n3924.t27 minus.t21 a_n1986_13878.t14 gnd.t192 sky130_fd_pr__nfet_01v8 ad=1.155 pd=7.33 as=1.155 ps=7.33 w=7 l=0.5
X235 vdd.t38 vdd.t36 vdd.t37 vdd.t33 sky130_fd_pr__pfet_01v8 ad=3.12 pd=16.78 as=0 ps=0 w=8 l=0.5
X236 a_n5644_8799.t17 a_n1986_13878.t65 a_n1986_8322.t13 vdd.t162 sky130_fd_pr__pfet_01v8 ad=1.485 pd=9.33 as=1.485 ps=9.33 w=9 l=0.5
X237 a_n1986_8322.t12 a_n1986_13878.t66 a_n5644_8799.t27 vdd.t157 sky130_fd_pr__pfet_01v8 ad=3.51 pd=18.78 as=1.485 ps=9.33 w=9 l=0.5
X238 CSoutput.t29 a_n5644_8799.t68 vdd.t145 vdd.t138 sky130_fd_pr__pfet_01v8 ad=1.32 pd=8.33 as=1.32 ps=8.33 w=8 l=0.5
X239 a_n1808_13878.t5 a_n1986_13878.t67 vdd.t161 vdd.t160 sky130_fd_pr__pfet_01v8 ad=3.51 pd=18.78 as=1.485 ps=9.33 w=9 l=0.5
X240 vdd.t134 a_n5644_8799.t69 CSoutput.t28 vdd.t6 sky130_fd_pr__pfet_01v8 ad=1.32 pd=8.33 as=1.32 ps=8.33 w=8 l=0.5
X241 a_n5644_8799.t16 plus.t20 a_n2903_n3924.t7 gnd.t144 sky130_fd_pr__nfet_01v8 ad=1.155 pd=7.33 as=1.155 ps=7.33 w=7 l=0.5
X242 output.t16 outputibias.t11 gnd.t182 gnd.t181 sky130_fd_pr__nfet_01v8 ad=2.34 pd=12.78 as=2.34 ps=12.78 w=6 l=2
X243 CSoutput.t74 commonsourceibias.t88 gnd.t219 gnd.t218 sky130_fd_pr__nfet_01v8 ad=1.155 pd=7.33 as=1.155 ps=7.33 w=7 l=1
X244 a_n1986_13878.t2 minus.t22 a_n2903_n3924.t26 gnd.t142 sky130_fd_pr__nfet_01v8 ad=1.155 pd=7.33 as=1.155 ps=7.33 w=7 l=0.5
X245 vdd.t118 CSoutput.t113 output.t3 gnd.t166 sky130_fd_pr__nfet_01v8 ad=0.825 pd=5.33 as=0.825 ps=5.33 w=5 l=1
X246 CSoutput.t27 a_n5644_8799.t70 vdd.t199 vdd.t20 sky130_fd_pr__pfet_01v8 ad=1.32 pd=8.33 as=1.32 ps=8.33 w=8 l=0.5
X247 a_n1808_13878.t9 a_n1986_13878.t24 a_n1986_13878.t25 vdd.t159 sky130_fd_pr__pfet_01v8 ad=1.485 pd=9.33 as=1.485 ps=9.33 w=9 l=0.5
X248 commonsourceibias.t15 commonsourceibias.t14 gnd.t255 gnd.t193 sky130_fd_pr__nfet_01v8 ad=1.155 pd=7.33 as=1.155 ps=7.33 w=7 l=1
X249 output.t2 CSoutput.t114 vdd.t119 gnd.t165 sky130_fd_pr__nfet_01v8 ad=0.825 pd=5.33 as=0.825 ps=5.33 w=5 l=1
X250 gnd.t281 commonsourceibias.t89 CSoutput.t94 gnd.t126 sky130_fd_pr__nfet_01v8 ad=1.155 pd=7.33 as=1.155 ps=7.33 w=7 l=1
X251 gnd.t217 commonsourceibias.t90 CSoutput.t73 gnd.t4 sky130_fd_pr__nfet_01v8 ad=1.155 pd=7.33 as=1.155 ps=7.33 w=7 l=1
X252 CSoutput.t26 a_n5644_8799.t71 vdd.t25 vdd.t0 sky130_fd_pr__pfet_01v8 ad=1.32 pd=8.33 as=1.32 ps=8.33 w=8 l=0.5