* NGSPICE file created from opamp.ext - technology: sky130A

.subckt opamp output vdd plus minus commonsourceibias outputibias diffpairibias gnd CSoutput
Cload output gnd 0.0p
X0 gnd.t177 gnd.t174 gnd.t176 gnd.t175 sky130_fd_pr__nfet_01v8 ad=2.34 pd=12.78 as=0 ps=0 w=6 l=2
X1 commonsourceibias.t47 commonsourceibias.t46 gnd.t66 gnd.t21 sky130_fd_pr__nfet_01v8 ad=1.155 pd=7.33 as=2.73 ps=14.78 w=7 l=1
X2 gnd.t194 commonsourceibias.t48 CSoutput.t70 gnd.t193 sky130_fd_pr__nfet_01v8 ad=1.155 pd=7.33 as=1.155 ps=7.33 w=7 l=1
X3 gnd.t173 gnd.t171 gnd.t172 gnd.t148 sky130_fd_pr__nfet_01v8 ad=2.73 pd=14.78 as=0 ps=0 w=7 l=1
X4 vdd.t158 a_n5644_8799.t36 CSoutput.t0 vdd.t105 sky130_fd_pr__pfet_01v8_lvt ad=1.32 pd=8.33 as=1.32 ps=8.33 w=8 l=0.5
X5 a_n1986_8322.t11 a_n1986_13878.t48 vdd.t190 vdd.t189 sky130_fd_pr__pfet_01v8_lvt ad=1.485 pd=9.33 as=1.485 ps=9.33 w=9 l=0.5
X6 a_n1808_13878.t19 a_n1986_13878.t12 a_n1986_13878.t13 vdd.t17 sky130_fd_pr__pfet_01v8_lvt ad=1.485 pd=9.33 as=3.51 ps=18.78 w=9 l=0.5
X7 output.t19 outputibias.t8 gnd.t273 gnd.t272 sky130_fd_pr__nfet_01v8 ad=2.34 pd=12.78 as=2.34 ps=12.78 w=6 l=2
X8 gnd.t265 commonsourceibias.t49 CSoutput.t69 gnd.t48 sky130_fd_pr__nfet_01v8 ad=1.155 pd=7.33 as=1.155 ps=7.33 w=7 l=1
X9 vdd.t160 CSoutput.t96 output.t15 gnd.t188 sky130_fd_pr__nfet_01v8_lvt ad=0.825 pd=5.33 as=1.95 ps=10.78 w=5 l=1
X10 a_n1986_13878.t7 a_n1986_13878.t6 a_n1808_13878.t18 vdd.t193 sky130_fd_pr__pfet_01v8_lvt ad=1.485 pd=9.33 as=1.485 ps=9.33 w=9 l=0.5
X11 a_n1808_13878.t17 a_n1986_13878.t8 a_n1986_13878.t9 vdd.t180 sky130_fd_pr__pfet_01v8_lvt ad=1.485 pd=9.33 as=1.485 ps=9.33 w=9 l=0.5
X12 vdd.t94 vdd.t92 vdd.t93 vdd.t67 sky130_fd_pr__pfet_01v8_lvt ad=3.51 pd=18.78 as=0 ps=0 w=9 l=0.5
X13 a_n1808_13878.t7 a_n1986_13878.t49 vdd.t192 vdd.t191 sky130_fd_pr__pfet_01v8_lvt ad=1.485 pd=9.33 as=1.485 ps=9.33 w=9 l=0.5
X14 gnd.t59 commonsourceibias.t44 commonsourceibias.t45 gnd.t58 sky130_fd_pr__nfet_01v8 ad=1.155 pd=7.33 as=1.155 ps=7.33 w=7 l=1
X15 vdd.t169 CSoutput.t97 output.t14 gnd.t189 sky130_fd_pr__nfet_01v8_lvt ad=0.825 pd=5.33 as=0.825 ps=5.33 w=5 l=1
X16 CSoutput.t6 a_n5644_8799.t37 vdd.t157 vdd.t101 sky130_fd_pr__pfet_01v8_lvt ad=1.32 pd=8.33 as=1.32 ps=8.33 w=8 l=0.5
X17 gnd.t62 commonsourceibias.t50 CSoutput.t68 gnd.t58 sky130_fd_pr__nfet_01v8 ad=1.155 pd=7.33 as=1.155 ps=7.33 w=7 l=1
X18 gnd.t167 gnd.t165 gnd.t166 gnd.t119 sky130_fd_pr__nfet_01v8 ad=2.73 pd=14.78 as=0 ps=0 w=7 l=0.5
X19 outputibias.t7 outputibias.t6 gnd.t254 gnd.t253 sky130_fd_pr__nfet_01v8 ad=2.34 pd=12.78 as=2.34 ps=12.78 w=6 l=2
X20 vdd.t91 vdd.t89 vdd.t90 vdd.t42 sky130_fd_pr__pfet_01v8_lvt ad=3.12 pd=16.78 as=0 ps=0 w=8 l=0.5
X21 minus.t4 gnd.t168 gnd.t170 gnd.t169 sky130_fd_pr__nfet_01v8 ad=0.165 pd=1.33 as=0.165 ps=1.33 w=1 l=0.5
X22 gnd.t164 gnd.t163 plus.t4 gnd.t119 sky130_fd_pr__nfet_01v8 ad=0.165 pd=1.33 as=0.165 ps=1.33 w=1 l=0.5
X23 a_n5644_8799.t0 plus.t5 a_n2903_n3924.t25 gnd.t2 sky130_fd_pr__nfet_01v8 ad=1.155 pd=7.33 as=1.155 ps=7.33 w=7 l=0.5
X24 gnd.t162 gnd.t160 gnd.t161 gnd.t115 sky130_fd_pr__nfet_01v8 ad=2.73 pd=14.78 as=0 ps=0 w=7 l=0.5
X25 a_n1986_8322.t23 a_n1986_13878.t50 a_n5644_8799.t11 vdd.t175 sky130_fd_pr__pfet_01v8_lvt ad=1.485 pd=9.33 as=1.485 ps=9.33 w=9 l=0.5
X26 gnd.t61 commonsourceibias.t42 commonsourceibias.t43 gnd.t60 sky130_fd_pr__nfet_01v8 ad=1.155 pd=7.33 as=1.155 ps=7.33 w=7 l=1
X27 a_n5644_8799.t24 plus.t6 a_n2903_n3924.t24 gnd.t228 sky130_fd_pr__nfet_01v8 ad=1.155 pd=7.33 as=1.155 ps=7.33 w=7 l=0.5
X28 CSoutput.t67 commonsourceibias.t51 gnd.t187 gnd.t183 sky130_fd_pr__nfet_01v8 ad=1.155 pd=7.33 as=1.155 ps=7.33 w=7 l=1
X29 CSoutput.t98 a_n1986_8322.t0 sky130_fd_pr__cap_mim_m3_1 l=12 w=12
X30 gnd.t29 commonsourceibias.t40 commonsourceibias.t41 gnd.t10 sky130_fd_pr__nfet_01v8 ad=1.155 pd=7.33 as=1.155 ps=7.33 w=7 l=1
X31 CSoutput.t77 a_n5644_8799.t38 vdd.t156 vdd.t114 sky130_fd_pr__pfet_01v8_lvt ad=1.32 pd=8.33 as=3.12 ps=16.78 w=8 l=0.5
X32 vdd.t155 a_n5644_8799.t39 CSoutput.t3 vdd.t132 sky130_fd_pr__pfet_01v8_lvt ad=3.12 pd=16.78 as=1.32 ps=8.33 w=8 l=0.5
X33 a_n5644_8799.t12 a_n1986_13878.t51 a_n1986_8322.t22 vdd.t17 sky130_fd_pr__pfet_01v8_lvt ad=1.485 pd=9.33 as=3.51 ps=18.78 w=9 l=0.5
X34 CSoutput.t13 a_n5644_8799.t40 vdd.t154 vdd.t95 sky130_fd_pr__pfet_01v8_lvt ad=1.32 pd=8.33 as=3.12 ps=16.78 w=8 l=0.5
X35 vdd.t153 a_n5644_8799.t41 CSoutput.t94 vdd.t148 sky130_fd_pr__pfet_01v8_lvt ad=1.32 pd=8.33 as=1.32 ps=8.33 w=8 l=0.5
X36 a_n2903_n3924.t49 minus.t5 a_n1986_13878.t0 gnd.t27 sky130_fd_pr__nfet_01v8 ad=1.155 pd=7.33 as=1.155 ps=7.33 w=7 l=0.5
X37 CSoutput.t66 commonsourceibias.t52 gnd.t280 gnd.t64 sky130_fd_pr__nfet_01v8 ad=1.155 pd=7.33 as=1.155 ps=7.33 w=7 l=1
X38 a_n2903_n3924.t50 diffpairibias.t16 gnd.t56 gnd.t55 sky130_fd_pr__nfet_01v8 ad=2.73 pd=14.78 as=2.73 ps=14.78 w=7 l=1
X39 a_n1986_13878.t45 minus.t6 a_n2903_n3924.t48 gnd.t218 sky130_fd_pr__nfet_01v8 ad=1.155 pd=7.33 as=1.155 ps=7.33 w=7 l=0.5
X40 a_n2903_n3924.t23 plus.t7 a_n5644_8799.t13 gnd.t203 sky130_fd_pr__nfet_01v8 ad=1.155 pd=7.33 as=1.155 ps=7.33 w=7 l=0.5
X41 output.t13 CSoutput.t99 vdd.t170 gnd.t219 sky130_fd_pr__nfet_01v8_lvt ad=0.825 pd=5.33 as=0.825 ps=5.33 w=5 l=1
X42 vdd.t172 CSoutput.t100 output.t12 gnd.t220 sky130_fd_pr__nfet_01v8_lvt ad=0.825 pd=5.33 as=0.825 ps=5.33 w=5 l=1
X43 CSoutput.t65 commonsourceibias.t53 gnd.t181 gnd.t180 sky130_fd_pr__nfet_01v8 ad=1.155 pd=7.33 as=1.155 ps=7.33 w=7 l=1
X44 a_n2903_n3924.t22 plus.t8 a_n5644_8799.t15 gnd.t207 sky130_fd_pr__nfet_01v8 ad=1.155 pd=7.33 as=1.155 ps=7.33 w=7 l=0.5
X45 a_n2903_n3924.t47 minus.t7 a_n1986_13878.t40 gnd.t67 sky130_fd_pr__nfet_01v8 ad=1.155 pd=7.33 as=1.155 ps=7.33 w=7 l=0.5
X46 CSoutput.t78 a_n5644_8799.t42 vdd.t152 vdd.t110 sky130_fd_pr__pfet_01v8_lvt ad=1.32 pd=8.33 as=1.32 ps=8.33 w=8 l=0.5
X47 vdd.t88 vdd.t86 vdd.t87 vdd.t20 sky130_fd_pr__pfet_01v8_lvt ad=3.12 pd=16.78 as=0 ps=0 w=8 l=0.5
X48 CSoutput.t64 commonsourceibias.t54 gnd.t22 gnd.t21 sky130_fd_pr__nfet_01v8 ad=1.155 pd=7.33 as=2.73 ps=14.78 w=7 l=1
X49 a_n2903_n3924.t46 minus.t8 a_n1986_13878.t39 gnd.t261 sky130_fd_pr__nfet_01v8 ad=1.155 pd=7.33 as=1.155 ps=7.33 w=7 l=0.5
X50 a_n1808_13878.t16 a_n1986_13878.t14 a_n1986_13878.t15 vdd.t3 sky130_fd_pr__pfet_01v8_lvt ad=1.485 pd=9.33 as=3.51 ps=18.78 w=9 l=0.5
X51 vdd.t151 a_n5644_8799.t43 CSoutput.t81 vdd.t148 sky130_fd_pr__pfet_01v8_lvt ad=1.32 pd=8.33 as=1.32 ps=8.33 w=8 l=0.5
X52 diffpairibias.t15 diffpairibias.t14 gnd.t241 gnd.t240 sky130_fd_pr__nfet_01v8 ad=2.73 pd=14.78 as=2.73 ps=14.78 w=7 l=1
X53 a_n1986_13878.t23 a_n1986_13878.t22 a_n1808_13878.t15 vdd.t12 sky130_fd_pr__pfet_01v8_lvt ad=1.485 pd=9.33 as=1.485 ps=9.33 w=9 l=0.5
X54 CSoutput.t21 a_n5644_8799.t44 vdd.t150 vdd.t126 sky130_fd_pr__pfet_01v8_lvt ad=1.32 pd=8.33 as=1.32 ps=8.33 w=8 l=0.5
X55 gnd.t159 gnd.t157 gnd.t158 gnd.t148 sky130_fd_pr__nfet_01v8 ad=2.73 pd=14.78 as=0 ps=0 w=7 l=1
X56 vdd.t85 vdd.t83 vdd.t84 vdd.t52 sky130_fd_pr__pfet_01v8_lvt ad=3.51 pd=18.78 as=0 ps=0 w=9 l=0.5
X57 gnd.t156 gnd.t154 plus.t3 gnd.t155 sky130_fd_pr__nfet_01v8 ad=0.165 pd=1.33 as=0.39 ps=2.78 w=1 l=0.5
X58 a_n1986_13878.t38 minus.t9 a_n2903_n3924.t45 gnd.t260 sky130_fd_pr__nfet_01v8 ad=1.155 pd=7.33 as=2.73 ps=14.78 w=7 l=0.5
X59 gnd.t257 commonsourceibias.t55 CSoutput.t63 gnd.t48 sky130_fd_pr__nfet_01v8 ad=1.155 pd=7.33 as=1.155 ps=7.33 w=7 l=1
X60 gnd.t221 commonsourceibias.t56 CSoutput.t62 gnd.t13 sky130_fd_pr__nfet_01v8 ad=1.155 pd=7.33 as=1.155 ps=7.33 w=7 l=1
X61 diffpairibias.t13 diffpairibias.t12 gnd.t54 gnd.t53 sky130_fd_pr__nfet_01v8 ad=2.73 pd=14.78 as=2.73 ps=14.78 w=7 l=1
X62 vdd.t82 vdd.t80 vdd.t81 vdd.t31 sky130_fd_pr__pfet_01v8_lvt ad=3.12 pd=16.78 as=0 ps=0 w=8 l=0.5
X63 gnd.t11 commonsourceibias.t57 CSoutput.t61 gnd.t10 sky130_fd_pr__nfet_01v8 ad=1.155 pd=7.33 as=1.155 ps=7.33 w=7 l=1
X64 commonsourceibias.t39 commonsourceibias.t38 gnd.t230 gnd.t183 sky130_fd_pr__nfet_01v8 ad=1.155 pd=7.33 as=1.155 ps=7.33 w=7 l=1
X65 vdd.t149 a_n5644_8799.t45 CSoutput.t22 vdd.t148 sky130_fd_pr__pfet_01v8_lvt ad=1.32 pd=8.33 as=1.32 ps=8.33 w=8 l=0.5
X66 vdd.t165 CSoutput.t101 output.t11 gnd.t242 sky130_fd_pr__nfet_01v8_lvt ad=0.825 pd=5.33 as=0.825 ps=5.33 w=5 l=1
X67 vdd.t147 a_n5644_8799.t46 CSoutput.t14 vdd.t123 sky130_fd_pr__pfet_01v8_lvt ad=1.32 pd=8.33 as=1.32 ps=8.33 w=8 l=0.5
X68 CSoutput.t20 a_n5644_8799.t47 vdd.t146 vdd.t95 sky130_fd_pr__pfet_01v8_lvt ad=1.32 pd=8.33 as=3.12 ps=16.78 w=8 l=0.5
X69 plus.t2 gnd.t151 gnd.t153 gnd.t152 sky130_fd_pr__nfet_01v8 ad=0.165 pd=1.33 as=0.165 ps=1.33 w=1 l=0.5
X70 vdd.t145 a_n5644_8799.t48 CSoutput.t4 vdd.t99 sky130_fd_pr__pfet_01v8_lvt ad=1.32 pd=8.33 as=1.32 ps=8.33 w=8 l=0.5
X71 gnd.t252 commonsourceibias.t58 CSoutput.t60 gnd.t15 sky130_fd_pr__nfet_01v8 ad=1.155 pd=7.33 as=1.155 ps=7.33 w=7 l=1
X72 a_n5644_8799.t29 plus.t9 a_n2903_n3924.t21 gnd.t258 sky130_fd_pr__nfet_01v8 ad=1.155 pd=7.33 as=1.155 ps=7.33 w=7 l=0.5
X73 commonsourceibias.t37 commonsourceibias.t36 gnd.t206 gnd.t17 sky130_fd_pr__nfet_01v8 ad=1.155 pd=7.33 as=1.155 ps=7.33 w=7 l=1
X74 CSoutput.t8 a_n5644_8799.t49 vdd.t144 vdd.t110 sky130_fd_pr__pfet_01v8_lvt ad=1.32 pd=8.33 as=1.32 ps=8.33 w=8 l=0.5
X75 CSoutput.t89 a_n5644_8799.t50 vdd.t143 vdd.t136 sky130_fd_pr__pfet_01v8_lvt ad=1.32 pd=8.33 as=1.32 ps=8.33 w=8 l=0.5
X76 a_n2903_n3924.t52 diffpairibias.t17 gnd.t201 gnd.t200 sky130_fd_pr__nfet_01v8 ad=2.73 pd=14.78 as=2.73 ps=14.78 w=7 l=1
X77 gnd.t16 commonsourceibias.t34 commonsourceibias.t35 gnd.t15 sky130_fd_pr__nfet_01v8 ad=1.155 pd=7.33 as=1.155 ps=7.33 w=7 l=1
X78 CSoutput.t15 a_n5644_8799.t51 vdd.t142 vdd.t136 sky130_fd_pr__pfet_01v8_lvt ad=1.32 pd=8.33 as=1.32 ps=8.33 w=8 l=0.5
X79 a_n2903_n3924.t44 minus.t10 a_n1986_13878.t37 gnd.t229 sky130_fd_pr__nfet_01v8 ad=1.155 pd=7.33 as=1.155 ps=7.33 w=7 l=0.5
X80 vdd.t141 a_n5644_8799.t52 CSoutput.t83 vdd.t134 sky130_fd_pr__pfet_01v8_lvt ad=1.32 pd=8.33 as=1.32 ps=8.33 w=8 l=0.5
X81 a_n2903_n3924.t20 plus.t10 a_n5644_8799.t1 gnd.t12 sky130_fd_pr__nfet_01v8 ad=1.155 pd=7.33 as=1.155 ps=7.33 w=7 l=0.5
X82 a_n1986_13878.t44 minus.t11 a_n2903_n3924.t43 gnd.t262 sky130_fd_pr__nfet_01v8 ad=1.155 pd=7.33 as=1.155 ps=7.33 w=7 l=0.5
X83 gnd.t36 commonsourceibias.t32 commonsourceibias.t33 gnd.t35 sky130_fd_pr__nfet_01v8 ad=2.73 pd=14.78 as=1.155 ps=7.33 w=7 l=1
X84 commonsourceibias.t31 commonsourceibias.t30 gnd.t205 gnd.t180 sky130_fd_pr__nfet_01v8 ad=1.155 pd=7.33 as=1.155 ps=7.33 w=7 l=1
X85 a_n1986_13878.t5 a_n1986_13878.t4 a_n1808_13878.t14 vdd.t175 sky130_fd_pr__pfet_01v8_lvt ad=1.485 pd=9.33 as=1.485 ps=9.33 w=9 l=0.5
X86 outputibias.t5 outputibias.t4 gnd.t264 gnd.t263 sky130_fd_pr__nfet_01v8 ad=2.34 pd=12.78 as=2.34 ps=12.78 w=6 l=2
X87 a_n1986_13878.t21 a_n1986_13878.t20 a_n1808_13878.t13 vdd.t5 sky130_fd_pr__pfet_01v8_lvt ad=3.51 pd=18.78 as=1.485 ps=9.33 w=9 l=0.5
X88 vdd.t140 a_n5644_8799.t53 CSoutput.t5 vdd.t132 sky130_fd_pr__pfet_01v8_lvt ad=3.12 pd=16.78 as=1.32 ps=8.33 w=8 l=0.5
X89 a_n5644_8799.t10 a_n1986_13878.t52 a_n1986_8322.t21 vdd.t18 sky130_fd_pr__pfet_01v8_lvt ad=1.485 pd=9.33 as=1.485 ps=9.33 w=9 l=0.5
X90 CSoutput.t59 commonsourceibias.t59 gnd.t65 gnd.t64 sky130_fd_pr__nfet_01v8 ad=1.155 pd=7.33 as=1.155 ps=7.33 w=7 l=1
X91 vdd.t139 a_n5644_8799.t54 CSoutput.t79 vdd.t134 sky130_fd_pr__pfet_01v8_lvt ad=1.32 pd=8.33 as=1.32 ps=8.33 w=8 l=0.5
X92 a_n2903_n3924.t42 minus.t12 a_n1986_13878.t47 gnd.t204 sky130_fd_pr__nfet_01v8 ad=2.73 pd=14.78 as=1.155 ps=7.33 w=7 l=0.5
X93 CSoutput.t58 commonsourceibias.t60 gnd.t212 gnd.t211 sky130_fd_pr__nfet_01v8 ad=1.155 pd=7.33 as=1.155 ps=7.33 w=7 l=1
X94 gnd.t282 commonsourceibias.t61 CSoutput.t57 gnd.t35 sky130_fd_pr__nfet_01v8 ad=2.73 pd=14.78 as=1.155 ps=7.33 w=7 l=1
X95 gnd.t150 gnd.t147 gnd.t149 gnd.t148 sky130_fd_pr__nfet_01v8 ad=2.73 pd=14.78 as=0 ps=0 w=7 l=1
X96 commonsourceibias.t29 commonsourceibias.t28 gnd.t202 gnd.t196 sky130_fd_pr__nfet_01v8 ad=1.155 pd=7.33 as=1.155 ps=7.33 w=7 l=1
X97 vdd.t79 vdd.t77 vdd.t78 vdd.t31 sky130_fd_pr__pfet_01v8_lvt ad=3.12 pd=16.78 as=0 ps=0 w=8 l=0.5
X98 CSoutput.t56 commonsourceibias.t62 gnd.t57 gnd.t21 sky130_fd_pr__nfet_01v8 ad=1.155 pd=7.33 as=2.73 ps=14.78 w=7 l=1
X99 CSoutput.t102 a_n1986_8322.t1 sky130_fd_pr__cap_mim_m3_1 l=12 w=12
X100 outputibias.t3 outputibias.t2 gnd.t7 gnd.t6 sky130_fd_pr__nfet_01v8 ad=2.34 pd=12.78 as=2.34 ps=12.78 w=6 l=2
X101 vdd.t138 a_n5644_8799.t55 CSoutput.t82 vdd.t123 sky130_fd_pr__pfet_01v8_lvt ad=1.32 pd=8.33 as=1.32 ps=8.33 w=8 l=0.5
X102 vdd.t76 vdd.t74 vdd.t75 vdd.t60 sky130_fd_pr__pfet_01v8_lvt ad=3.51 pd=18.78 as=0 ps=0 w=9 l=0.5
X103 vdd.t73 vdd.t70 vdd.t72 vdd.t71 sky130_fd_pr__pfet_01v8_lvt ad=3.51 pd=18.78 as=0 ps=0 w=9 l=0.5
X104 a_n1986_13878.t46 minus.t13 a_n2903_n3924.t41 gnd.t208 sky130_fd_pr__nfet_01v8 ad=1.155 pd=7.33 as=1.155 ps=7.33 w=7 l=0.5
X105 a_n2903_n3924.t1 diffpairibias.t18 gnd.t44 gnd.t43 sky130_fd_pr__nfet_01v8 ad=2.73 pd=14.78 as=2.73 ps=14.78 w=7 l=1
X106 vdd.t69 vdd.t66 vdd.t68 vdd.t67 sky130_fd_pr__pfet_01v8_lvt ad=3.51 pd=18.78 as=0 ps=0 w=9 l=0.5
X107 commonsourceibias.t27 commonsourceibias.t26 gnd.t244 gnd.t211 sky130_fd_pr__nfet_01v8 ad=1.155 pd=7.33 as=1.155 ps=7.33 w=7 l=1
X108 vdd.t179 a_n1986_13878.t53 a_n1986_8322.t10 vdd.t178 sky130_fd_pr__pfet_01v8_lvt ad=1.485 pd=9.33 as=1.485 ps=9.33 w=9 l=0.5
X109 vdd.t65 vdd.t63 vdd.t64 vdd.t56 sky130_fd_pr__pfet_01v8_lvt ad=3.51 pd=18.78 as=0 ps=0 w=9 l=0.5
X110 gnd.t146 gnd.t144 minus.t3 gnd.t145 sky130_fd_pr__nfet_01v8 ad=0.165 pd=1.33 as=0.39 ps=2.78 w=1 l=0.5
X111 a_n2903_n3924.t19 plus.t11 a_n5644_8799.t4 gnd.t52 sky130_fd_pr__nfet_01v8 ad=1.155 pd=7.33 as=1.155 ps=7.33 w=7 l=0.5
X112 CSoutput.t84 a_n5644_8799.t56 vdd.t137 vdd.t136 sky130_fd_pr__pfet_01v8_lvt ad=1.32 pd=8.33 as=1.32 ps=8.33 w=8 l=0.5
X113 a_n1986_8322.t9 a_n1986_13878.t54 vdd.t14 vdd.t13 sky130_fd_pr__pfet_01v8_lvt ad=1.485 pd=9.33 as=1.485 ps=9.33 w=9 l=0.5
X114 vdd.t135 a_n5644_8799.t57 CSoutput.t11 vdd.t134 sky130_fd_pr__pfet_01v8_lvt ad=1.32 pd=8.33 as=1.32 ps=8.33 w=8 l=0.5
X115 gnd.t49 commonsourceibias.t24 commonsourceibias.t25 gnd.t48 sky130_fd_pr__nfet_01v8 ad=1.155 pd=7.33 as=1.155 ps=7.33 w=7 l=1
X116 gnd.t14 commonsourceibias.t63 CSoutput.t55 gnd.t13 sky130_fd_pr__nfet_01v8 ad=1.155 pd=7.33 as=1.155 ps=7.33 w=7 l=1
X117 vdd.t16 a_n1986_13878.t55 a_n1808_13878.t6 vdd.t15 sky130_fd_pr__pfet_01v8_lvt ad=1.485 pd=9.33 as=1.485 ps=9.33 w=9 l=0.5
X118 gnd.t223 commonsourceibias.t64 CSoutput.t54 gnd.t10 sky130_fd_pr__nfet_01v8 ad=1.155 pd=7.33 as=1.155 ps=7.33 w=7 l=1
X119 a_n1986_13878.t41 minus.t14 a_n2903_n3924.t40 gnd.t179 sky130_fd_pr__nfet_01v8 ad=1.155 pd=7.33 as=1.155 ps=7.33 w=7 l=0.5
X120 a_n5644_8799.t23 plus.t12 a_n2903_n3924.t18 gnd.t227 sky130_fd_pr__nfet_01v8 ad=1.155 pd=7.33 as=2.73 ps=14.78 w=7 l=0.5
X121 gnd.t31 commonsourceibias.t65 CSoutput.t53 gnd.t30 sky130_fd_pr__nfet_01v8 ad=2.73 pd=14.78 as=1.155 ps=7.33 w=7 l=1
X122 vdd.t62 vdd.t59 vdd.t61 vdd.t60 sky130_fd_pr__pfet_01v8_lvt ad=3.51 pd=18.78 as=0 ps=0 w=9 l=0.5
X123 diffpairibias.t11 diffpairibias.t10 gnd.t5 gnd.t4 sky130_fd_pr__nfet_01v8 ad=2.73 pd=14.78 as=2.73 ps=14.78 w=7 l=1
X124 vdd.t171 CSoutput.t103 output.t10 gnd.t243 sky130_fd_pr__nfet_01v8_lvt ad=0.825 pd=5.33 as=0.825 ps=5.33 w=5 l=1
X125 vdd.t58 vdd.t55 vdd.t57 vdd.t56 sky130_fd_pr__pfet_01v8_lvt ad=3.51 pd=18.78 as=0 ps=0 w=9 l=0.5
X126 vdd.t133 a_n5644_8799.t58 CSoutput.t19 vdd.t132 sky130_fd_pr__pfet_01v8_lvt ad=3.12 pd=16.78 as=1.32 ps=8.33 w=8 l=0.5
X127 gnd.t283 commonsourceibias.t66 CSoutput.t52 gnd.t232 sky130_fd_pr__nfet_01v8 ad=1.155 pd=7.33 as=1.155 ps=7.33 w=7 l=1
X128 outputibias.t1 outputibias.t0 gnd.t51 gnd.t50 sky130_fd_pr__nfet_01v8 ad=2.34 pd=12.78 as=2.34 ps=12.78 w=6 l=2
X129 a_n5644_8799.t21 a_n1986_13878.t56 a_n1986_8322.t20 vdd.t0 sky130_fd_pr__pfet_01v8_lvt ad=1.485 pd=9.33 as=1.485 ps=9.33 w=9 l=0.5
X130 a_n1986_8322.t8 a_n1986_13878.t57 vdd.t186 vdd.t185 sky130_fd_pr__pfet_01v8_lvt ad=3.51 pd=18.78 as=1.485 ps=9.33 w=9 l=0.5
X131 vdd.t54 vdd.t51 vdd.t53 vdd.t52 sky130_fd_pr__pfet_01v8_lvt ad=3.51 pd=18.78 as=0 ps=0 w=9 l=0.5
X132 gnd.t290 commonsourceibias.t67 CSoutput.t51 gnd.t15 sky130_fd_pr__nfet_01v8 ad=1.155 pd=7.33 as=1.155 ps=7.33 w=7 l=1
X133 a_n1986_13878.t17 a_n1986_13878.t16 a_n1808_13878.t12 vdd.t4 sky130_fd_pr__pfet_01v8_lvt ad=1.485 pd=9.33 as=1.485 ps=9.33 w=9 l=0.5
X134 a_n2903_n3924.t39 minus.t15 a_n1986_13878.t1 gnd.t239 sky130_fd_pr__nfet_01v8 ad=2.73 pd=14.78 as=1.155 ps=7.33 w=7 l=0.5
X135 a_n2903_n3924.t38 minus.t16 a_n1986_13878.t33 gnd.t259 sky130_fd_pr__nfet_01v8 ad=1.155 pd=7.33 as=1.155 ps=7.33 w=7 l=0.5
X136 a_n5644_8799.t27 plus.t13 a_n2903_n3924.t17 gnd.t255 sky130_fd_pr__nfet_01v8 ad=1.155 pd=7.33 as=1.155 ps=7.33 w=7 l=0.5
X137 CSoutput.t104 a_n1986_8322.t3 sky130_fd_pr__cap_mim_m3_1 l=12 w=12
X138 a_n5644_8799.t22 a_n1986_13878.t58 a_n1986_8322.t19 vdd.t180 sky130_fd_pr__pfet_01v8_lvt ad=1.485 pd=9.33 as=1.485 ps=9.33 w=9 l=0.5
X139 CSoutput.t50 commonsourceibias.t68 gnd.t234 gnd.t8 sky130_fd_pr__nfet_01v8 ad=1.155 pd=7.33 as=1.155 ps=7.33 w=7 l=1
X140 a_n1986_13878.t32 minus.t17 a_n2903_n3924.t37 gnd.t195 sky130_fd_pr__nfet_01v8 ad=1.155 pd=7.33 as=1.155 ps=7.33 w=7 l=0.5
X141 CSoutput.t105 a_n1986_8322.t2 sky130_fd_pr__cap_mim_m3_1 l=12 w=12
X142 a_n1808_13878.t11 a_n1986_13878.t10 a_n1986_13878.t11 vdd.t18 sky130_fd_pr__pfet_01v8_lvt ad=1.485 pd=9.33 as=1.485 ps=9.33 w=9 l=0.5
X143 vdd.t188 a_n1986_13878.t59 a_n1986_8322.t7 vdd.t187 sky130_fd_pr__pfet_01v8_lvt ad=1.485 pd=9.33 as=3.51 ps=18.78 w=9 l=0.5
X144 vdd.t50 vdd.t48 vdd.t49 vdd.t42 sky130_fd_pr__pfet_01v8_lvt ad=3.12 pd=16.78 as=0 ps=0 w=8 l=0.5
X145 gnd.t143 gnd.t140 gnd.t142 gnd.t141 sky130_fd_pr__nfet_01v8 ad=2.73 pd=14.78 as=0 ps=0 w=7 l=1
X146 a_n2903_n3924.t53 diffpairibias.t19 gnd.t237 gnd.t236 sky130_fd_pr__nfet_01v8 ad=2.73 pd=14.78 as=2.73 ps=14.78 w=7 l=1
X147 CSoutput.t87 a_n5644_8799.t59 vdd.t131 vdd.t126 sky130_fd_pr__pfet_01v8_lvt ad=1.32 pd=8.33 as=1.32 ps=8.33 w=8 l=0.5
X148 CSoutput.t49 commonsourceibias.t69 gnd.t235 gnd.t211 sky130_fd_pr__nfet_01v8 ad=1.155 pd=7.33 as=1.155 ps=7.33 w=7 l=1
X149 a_n1986_13878.t31 minus.t18 a_n2903_n3924.t36 gnd.t2 sky130_fd_pr__nfet_01v8 ad=1.155 pd=7.33 as=1.155 ps=7.33 w=7 l=0.5
X150 CSoutput.t48 commonsourceibias.t70 gnd.t210 gnd.t209 sky130_fd_pr__nfet_01v8 ad=1.155 pd=7.33 as=1.155 ps=7.33 w=7 l=1
X151 a_n2903_n3924.t55 diffpairibias.t20 gnd.t248 gnd.t247 sky130_fd_pr__nfet_01v8 ad=2.73 pd=14.78 as=2.73 ps=14.78 w=7 l=1
X152 vdd.t130 a_n5644_8799.t60 CSoutput.t9 vdd.t97 sky130_fd_pr__pfet_01v8_lvt ad=3.12 pd=16.78 as=1.32 ps=8.33 w=8 l=0.5
X153 gnd.t231 commonsourceibias.t71 CSoutput.t47 gnd.t35 sky130_fd_pr__nfet_01v8 ad=2.73 pd=14.78 as=1.155 ps=7.33 w=7 l=1
X154 gnd.t139 gnd.t137 minus.t2 gnd.t138 sky130_fd_pr__nfet_01v8 ad=0.165 pd=1.33 as=0.165 ps=1.33 w=1 l=0.5
X155 CSoutput.t46 commonsourceibias.t72 gnd.t274 gnd.t32 sky130_fd_pr__nfet_01v8 ad=1.155 pd=7.33 as=1.155 ps=7.33 w=7 l=1
X156 vdd.t129 a_n5644_8799.t61 CSoutput.t18 vdd.t112 sky130_fd_pr__pfet_01v8_lvt ad=1.32 pd=8.33 as=1.32 ps=8.33 w=8 l=0.5
X157 a_n1986_13878.t36 minus.t19 a_n2903_n3924.t35 gnd.t228 sky130_fd_pr__nfet_01v8 ad=1.155 pd=7.33 as=1.155 ps=7.33 w=7 l=0.5
X158 gnd.t136 gnd.t134 gnd.t135 gnd.t94 sky130_fd_pr__nfet_01v8 ad=2.73 pd=14.78 as=0 ps=0 w=7 l=1
X159 diffpairibias.t9 diffpairibias.t8 gnd.t250 gnd.t249 sky130_fd_pr__nfet_01v8 ad=2.73 pd=14.78 as=2.73 ps=14.78 w=7 l=1
X160 a_n2903_n3924.t16 plus.t14 a_n5644_8799.t34 gnd.t27 sky130_fd_pr__nfet_01v8 ad=1.155 pd=7.33 as=1.155 ps=7.33 w=7 l=0.5
X161 CSoutput.t95 a_n5644_8799.t62 vdd.t128 vdd.t116 sky130_fd_pr__pfet_01v8_lvt ad=1.32 pd=8.33 as=1.32 ps=8.33 w=8 l=0.5
X162 CSoutput.t45 commonsourceibias.t73 gnd.t284 gnd.t19 sky130_fd_pr__nfet_01v8 ad=1.155 pd=7.33 as=2.73 ps=14.78 w=7 l=1
X163 gnd.t178 commonsourceibias.t74 CSoutput.t44 gnd.t60 sky130_fd_pr__nfet_01v8 ad=1.155 pd=7.33 as=1.155 ps=7.33 w=7 l=1
X164 vdd.t47 vdd.t45 vdd.t46 vdd.t27 sky130_fd_pr__pfet_01v8_lvt ad=3.12 pd=16.78 as=0 ps=0 w=8 l=0.5
X165 a_n1808_13878.t5 a_n1986_13878.t60 vdd.t197 vdd.t196 sky130_fd_pr__pfet_01v8_lvt ad=1.485 pd=9.33 as=1.485 ps=9.33 w=9 l=0.5
X166 vdd.t199 a_n1986_13878.t61 a_n1808_13878.t4 vdd.t198 sky130_fd_pr__pfet_01v8_lvt ad=1.485 pd=9.33 as=1.485 ps=9.33 w=9 l=0.5
X167 a_n2903_n3924.t34 minus.t20 a_n1986_13878.t43 gnd.t207 sky130_fd_pr__nfet_01v8 ad=1.155 pd=7.33 as=1.155 ps=7.33 w=7 l=0.5
X168 a_n2903_n3924.t15 plus.t15 a_n5644_8799.t6 gnd.t67 sky130_fd_pr__nfet_01v8 ad=1.155 pd=7.33 as=1.155 ps=7.33 w=7 l=0.5
X169 gnd.t1 commonsourceibias.t22 commonsourceibias.t23 gnd.t0 sky130_fd_pr__nfet_01v8 ad=1.155 pd=7.33 as=1.155 ps=7.33 w=7 l=1
X170 gnd.t289 commonsourceibias.t75 CSoutput.t43 gnd.t30 sky130_fd_pr__nfet_01v8 ad=2.73 pd=14.78 as=1.155 ps=7.33 w=7 l=1
X171 output.t9 CSoutput.t106 vdd.t164 gnd.t3 sky130_fd_pr__nfet_01v8_lvt ad=0.825 pd=5.33 as=0.825 ps=5.33 w=5 l=1
X172 a_n5644_8799.t28 plus.t16 a_n2903_n3924.t14 gnd.t256 sky130_fd_pr__nfet_01v8 ad=1.155 pd=7.33 as=1.155 ps=7.33 w=7 l=0.5
X173 a_n2903_n3924.t33 minus.t21 a_n1986_13878.t42 gnd.t214 sky130_fd_pr__nfet_01v8 ad=1.155 pd=7.33 as=1.155 ps=7.33 w=7 l=0.5
X174 vdd.t44 vdd.t41 vdd.t43 vdd.t42 sky130_fd_pr__pfet_01v8_lvt ad=3.12 pd=16.78 as=0 ps=0 w=8 l=0.5
X175 gnd.t233 commonsourceibias.t76 CSoutput.t42 gnd.t232 sky130_fd_pr__nfet_01v8 ad=1.155 pd=7.33 as=1.155 ps=7.33 w=7 l=1
X176 diffpairibias.t7 diffpairibias.t6 gnd.t226 gnd.t225 sky130_fd_pr__nfet_01v8 ad=2.73 pd=14.78 as=2.73 ps=14.78 w=7 l=1
X177 CSoutput.t80 a_n5644_8799.t63 vdd.t127 vdd.t126 sky130_fd_pr__pfet_01v8_lvt ad=1.32 pd=8.33 as=1.32 ps=8.33 w=8 l=0.5
X178 gnd.t266 commonsourceibias.t20 commonsourceibias.t21 gnd.t232 sky130_fd_pr__nfet_01v8 ad=1.155 pd=7.33 as=1.155 ps=7.33 w=7 l=1
X179 output.t8 CSoutput.t107 vdd.t173 gnd.t23 sky130_fd_pr__nfet_01v8_lvt ad=0.825 pd=5.33 as=0.825 ps=5.33 w=5 l=1
X180 vdd.t125 a_n5644_8799.t64 CSoutput.t17 vdd.t97 sky130_fd_pr__pfet_01v8_lvt ad=3.12 pd=16.78 as=1.32 ps=8.33 w=8 l=0.5
X181 CSoutput.t41 commonsourceibias.t77 gnd.t18 gnd.t17 sky130_fd_pr__nfet_01v8 ad=1.155 pd=7.33 as=1.155 ps=7.33 w=7 l=1
X182 gnd.t133 gnd.t131 gnd.t132 gnd.t94 sky130_fd_pr__nfet_01v8 ad=2.73 pd=14.78 as=0 ps=0 w=7 l=1
X183 gnd.t127 gnd.t125 gnd.t126 gnd.t72 sky130_fd_pr__nfet_01v8 ad=2.73 pd=14.78 as=0 ps=0 w=7 l=1
X184 a_n1986_8322.t18 a_n1986_13878.t62 a_n5644_8799.t26 vdd.t193 sky130_fd_pr__pfet_01v8_lvt ad=1.485 pd=9.33 as=1.485 ps=9.33 w=9 l=0.5
X185 CSoutput.t40 commonsourceibias.t78 gnd.t182 gnd.t8 sky130_fd_pr__nfet_01v8 ad=1.155 pd=7.33 as=1.155 ps=7.33 w=7 l=1
X186 vdd.t124 a_n5644_8799.t65 CSoutput.t93 vdd.t123 sky130_fd_pr__pfet_01v8_lvt ad=1.32 pd=8.33 as=1.32 ps=8.33 w=8 l=0.5
X187 CSoutput.t90 a_n5644_8799.t66 vdd.t122 vdd.t103 sky130_fd_pr__pfet_01v8_lvt ad=1.32 pd=8.33 as=1.32 ps=8.33 w=8 l=0.5
X188 vdd.t121 a_n5644_8799.t67 CSoutput.t91 vdd.t112 sky130_fd_pr__pfet_01v8_lvt ad=1.32 pd=8.33 as=1.32 ps=8.33 w=8 l=0.5
X189 vdd.t195 a_n1986_13878.t63 a_n1986_8322.t6 vdd.t194 sky130_fd_pr__pfet_01v8_lvt ad=1.485 pd=9.33 as=3.51 ps=18.78 w=9 l=0.5
X190 plus.t1 gnd.t128 gnd.t130 gnd.t129 sky130_fd_pr__nfet_01v8 ad=0.165 pd=1.33 as=0.165 ps=1.33 w=1 l=0.5
X191 gnd.t124 gnd.t122 minus.t1 gnd.t123 sky130_fd_pr__nfet_01v8 ad=0.39 pd=2.78 as=0.165 ps=1.33 w=1 l=0.5
X192 gnd.t121 gnd.t118 gnd.t120 gnd.t119 sky130_fd_pr__nfet_01v8 ad=2.73 pd=14.78 as=0 ps=0 w=7 l=0.5
X193 gnd.t269 commonsourceibias.t18 commonsourceibias.t19 gnd.t37 sky130_fd_pr__nfet_01v8 ad=1.155 pd=7.33 as=1.155 ps=7.33 w=7 l=1
X194 a_n1808_13878.t3 a_n1986_13878.t64 vdd.t177 vdd.t176 sky130_fd_pr__pfet_01v8_lvt ad=3.51 pd=18.78 as=1.485 ps=9.33 w=9 l=0.5
X195 gnd.t117 gnd.t114 gnd.t116 gnd.t115 sky130_fd_pr__nfet_01v8 ad=2.73 pd=14.78 as=0 ps=0 w=7 l=0.5
X196 gnd.t113 gnd.t110 gnd.t112 gnd.t111 sky130_fd_pr__nfet_01v8 ad=2.73 pd=14.78 as=0 ps=0 w=7 l=1
X197 CSoutput.t39 commonsourceibias.t79 gnd.t281 gnd.t196 sky130_fd_pr__nfet_01v8 ad=1.155 pd=7.33 as=1.155 ps=7.33 w=7 l=1
X198 a_n2903_n3924.t51 diffpairibias.t21 gnd.t199 gnd.t198 sky130_fd_pr__nfet_01v8 ad=2.73 pd=14.78 as=2.73 ps=14.78 w=7 l=1
X199 CSoutput.t10 a_n5644_8799.t68 vdd.t120 vdd.t116 sky130_fd_pr__pfet_01v8_lvt ad=1.32 pd=8.33 as=1.32 ps=8.33 w=8 l=0.5
X200 CSoutput.t38 commonsourceibias.t80 gnd.t275 gnd.t209 sky130_fd_pr__nfet_01v8 ad=1.155 pd=7.33 as=1.155 ps=7.33 w=7 l=1
X201 output.t7 CSoutput.t108 vdd.t174 gnd.t24 sky130_fd_pr__nfet_01v8_lvt ad=0.825 pd=5.33 as=0.825 ps=5.33 w=5 l=1
X202 CSoutput.t72 a_n5644_8799.t69 vdd.t119 vdd.t114 sky130_fd_pr__pfet_01v8_lvt ad=1.32 pd=8.33 as=3.12 ps=16.78 w=8 l=0.5
X203 CSoutput.t109 a_n1986_8322.t1 sky130_fd_pr__cap_mim_m3_1 l=12 w=12
X204 vdd.t40 vdd.t38 vdd.t39 vdd.t27 sky130_fd_pr__pfet_01v8_lvt ad=3.12 pd=16.78 as=0 ps=0 w=8 l=0.5
X205 CSoutput.t37 commonsourceibias.t81 gnd.t33 gnd.t32 sky130_fd_pr__nfet_01v8 ad=1.155 pd=7.33 as=1.155 ps=7.33 w=7 l=1
X206 gnd.t109 gnd.t106 gnd.t108 gnd.t107 sky130_fd_pr__nfet_01v8_lvt ad=1.95 pd=10.78 as=0 ps=0 w=5 l=1
X207 a_n1986_8322.t17 a_n1986_13878.t65 a_n5644_8799.t9 vdd.t4 sky130_fd_pr__pfet_01v8_lvt ad=1.485 pd=9.33 as=1.485 ps=9.33 w=9 l=0.5
X208 vdd.t11 a_n1986_13878.t66 a_n1986_8322.t5 vdd.t10 sky130_fd_pr__pfet_01v8_lvt ad=1.485 pd=9.33 as=1.485 ps=9.33 w=9 l=0.5
X209 vdd.t118 a_n5644_8799.t70 CSoutput.t85 vdd.t105 sky130_fd_pr__pfet_01v8_lvt ad=1.32 pd=8.33 as=1.32 ps=8.33 w=8 l=0.5
X210 CSoutput.t76 a_n5644_8799.t71 vdd.t117 vdd.t116 sky130_fd_pr__pfet_01v8_lvt ad=1.32 pd=8.33 as=1.32 ps=8.33 w=8 l=0.5
X211 gnd.t277 commonsourceibias.t82 CSoutput.t36 gnd.t37 sky130_fd_pr__nfet_01v8 ad=1.155 pd=7.33 as=1.155 ps=7.33 w=7 l=1
X212 output.t18 outputibias.t9 gnd.t271 gnd.t270 sky130_fd_pr__nfet_01v8 ad=2.34 pd=12.78 as=2.34 ps=12.78 w=6 l=2
X213 a_n2903_n3924.t13 plus.t17 a_n5644_8799.t25 gnd.t229 sky130_fd_pr__nfet_01v8 ad=1.155 pd=7.33 as=1.155 ps=7.33 w=7 l=0.5
X214 gnd.t105 gnd.t103 gnd.t104 gnd.t90 sky130_fd_pr__nfet_01v8 ad=2.73 pd=14.78 as=0 ps=0 w=7 l=1
X215 vdd.t161 CSoutput.t110 output.t6 gnd.t45 sky130_fd_pr__nfet_01v8_lvt ad=0.825 pd=5.33 as=0.825 ps=5.33 w=5 l=1
X216 a_n2903_n3924.t32 minus.t22 a_n1986_13878.t34 gnd.t12 sky130_fd_pr__nfet_01v8 ad=1.155 pd=7.33 as=1.155 ps=7.33 w=7 l=0.5
X217 a_n5644_8799.t35 plus.t18 a_n2903_n3924.t12 gnd.t262 sky130_fd_pr__nfet_01v8 ad=1.155 pd=7.33 as=1.155 ps=7.33 w=7 l=0.5
X218 gnd.t102 gnd.t100 gnd.t101 gnd.t90 sky130_fd_pr__nfet_01v8 ad=2.73 pd=14.78 as=0 ps=0 w=7 l=1
X219 output.t17 outputibias.t10 gnd.t279 gnd.t278 sky130_fd_pr__nfet_01v8 ad=2.34 pd=12.78 as=2.34 ps=12.78 w=6 l=2
X220 diffpairibias.t5 diffpairibias.t4 gnd.t26 gnd.t25 sky130_fd_pr__nfet_01v8 ad=2.73 pd=14.78 as=2.73 ps=14.78 w=7 l=1
X221 vdd.t37 vdd.t34 vdd.t36 vdd.t35 sky130_fd_pr__pfet_01v8_lvt ad=3.51 pd=18.78 as=0 ps=0 w=9 l=0.5
X222 a_n5644_8799.t18 plus.t19 a_n2903_n3924.t11 gnd.t218 sky130_fd_pr__nfet_01v8 ad=1.155 pd=7.33 as=1.155 ps=7.33 w=7 l=0.5
X223 a_n2903_n3924.t31 minus.t23 a_n1986_13878.t29 gnd.t203 sky130_fd_pr__nfet_01v8 ad=1.155 pd=7.33 as=1.155 ps=7.33 w=7 l=0.5
X224 vdd.t33 vdd.t30 vdd.t32 vdd.t31 sky130_fd_pr__pfet_01v8_lvt ad=3.12 pd=16.78 as=0 ps=0 w=8 l=0.5
X225 a_n1808_13878.t10 a_n1986_13878.t2 a_n1986_13878.t3 vdd.t2 sky130_fd_pr__pfet_01v8_lvt ad=1.485 pd=9.33 as=1.485 ps=9.33 w=9 l=0.5
X226 gnd.t217 commonsourceibias.t83 CSoutput.t35 gnd.t60 sky130_fd_pr__nfet_01v8 ad=1.155 pd=7.33 as=1.155 ps=7.33 w=7 l=1
X227 CSoutput.t34 commonsourceibias.t84 gnd.t20 gnd.t19 sky130_fd_pr__nfet_01v8 ad=1.155 pd=7.33 as=2.73 ps=14.78 w=7 l=1
X228 a_n1986_8322.t16 a_n1986_13878.t67 a_n5644_8799.t5 vdd.t12 sky130_fd_pr__pfet_01v8_lvt ad=1.485 pd=9.33 as=1.485 ps=9.33 w=9 l=0.5
X229 gnd.t63 commonsourceibias.t85 CSoutput.t33 gnd.t0 sky130_fd_pr__nfet_01v8 ad=1.155 pd=7.33 as=1.155 ps=7.33 w=7 l=1
X230 gnd.t276 commonsourceibias.t16 commonsourceibias.t17 gnd.t30 sky130_fd_pr__nfet_01v8 ad=2.73 pd=14.78 as=1.155 ps=7.33 w=7 l=1
X231 a_n2903_n3924.t10 plus.t20 a_n5644_8799.t31 gnd.t261 sky130_fd_pr__nfet_01v8 ad=1.155 pd=7.33 as=1.155 ps=7.33 w=7 l=0.5
X232 gnd.t85 gnd.t82 gnd.t84 gnd.t83 sky130_fd_pr__nfet_01v8 ad=2.34 pd=12.78 as=0 ps=0 w=6 l=2
X233 vdd.t162 CSoutput.t111 output.t5 gnd.t46 sky130_fd_pr__nfet_01v8_lvt ad=0.825 pd=5.33 as=0.825 ps=5.33 w=5 l=1
X234 output.t4 CSoutput.t112 vdd.t167 gnd.t47 sky130_fd_pr__nfet_01v8_lvt ad=0.825 pd=5.33 as=0.825 ps=5.33 w=5 l=1
X235 CSoutput.t12 a_n5644_8799.t72 vdd.t115 vdd.t114 sky130_fd_pr__pfet_01v8_lvt ad=1.32 pd=8.33 as=3.12 ps=16.78 w=8 l=0.5
X236 a_n1986_8322.t4 a_n1986_13878.t68 vdd.t7 vdd.t6 sky130_fd_pr__pfet_01v8_lvt ad=3.51 pd=18.78 as=1.485 ps=9.33 w=9 l=0.5
X237 gnd.t99 gnd.t97 gnd.t98 gnd.t72 sky130_fd_pr__nfet_01v8 ad=2.73 pd=14.78 as=0 ps=0 w=7 l=1
X238 CSoutput.t32 commonsourceibias.t86 gnd.t28 gnd.t17 sky130_fd_pr__nfet_01v8 ad=1.155 pd=7.33 as=1.155 ps=7.33 w=7 l=1
X239 a_n5644_8799.t32 plus.t21 a_n2903_n3924.t9 gnd.t260 sky130_fd_pr__nfet_01v8 ad=1.155 pd=7.33 as=2.73 ps=14.78 w=7 l=0.5
X240 CSoutput.t31 commonsourceibias.t87 gnd.t238 gnd.t39 sky130_fd_pr__nfet_01v8 ad=1.155 pd=7.33 as=1.155 ps=7.33 w=7 l=1
X241 gnd.t96 gnd.t93 gnd.t95 gnd.t94 sky130_fd_pr__nfet_01v8 ad=2.73 pd=14.78 as=0 ps=0 w=7 l=1
X242 a_n2903_n3924.t30 minus.t24 a_n1986_13878.t28 gnd.t52 sky130_fd_pr__nfet_01v8 ad=1.155 pd=7.33 as=1.155 ps=7.33 w=7 l=0.5
X243 output.t3 CSoutput.t113 vdd.t159 gnd.t190 sky130_fd_pr__nfet_01v8_lvt ad=0.825 pd=5.33 as=0.825 ps=5.33 w=5 l=1
X244 vdd.t9 a_n1986_13878.t69 a_n1808_13878.t2 vdd.t8 sky130_fd_pr__pfet_01v8_lvt ad=1.485 pd=9.33 as=3.51 ps=18.78 w=9 l=0.5
X245 vdd.t29 vdd.t26 vdd.t28 vdd.t27 sky130_fd_pr__pfet_01v8_lvt ad=3.12 pd=16.78 as=0 ps=0 w=8 l=0.5
X246 a_n1986_8322.t15 a_n1986_13878.t70 a_n5644_8799.t2 vdd.t1 sky130_fd_pr__pfet_01v8_lvt ad=3.51 pd=18.78 as=1.485 ps=9.33 w=9 l=0.5
X247 a_n5644_8799.t7 plus.t22 a_n2903_n3924.t8 gnd.t179 sky130_fd_pr__nfet_01v8 ad=1.155 pd=7.33 as=1.155 ps=7.33 w=7 l=0.5
X248 output.t16 outputibias.t11 gnd.t70 gnd.t69 sky130_fd_pr__nfet_01v8 ad=2.34 pd=12.78 as=2.34 ps=12.78 w=6 l=2