* NGSPICE file created from opamp141.ext - technology: sky130A

.subckt opamp141 gnd CSoutput output vdd plus minus commonsourceibias outputibias
+ diffpairibias
X0 gnd.t304 commonsourceibias.t64 CSoutput.t115 gnd.t187 sky130_fd_pr__nfet_01v8 ad=1.155 pd=7.33 as=1.155 ps=7.33 w=7 l=1
X1 CSoutput.t177 a_n8300_8799.t36 vdd.t295 vdd.t239 sky130_fd_pr__pfet_01v8 ad=1.32 pd=8.33 as=1.32 ps=8.33 w=8 l=0.5
X2 commonsourceibias.t17 commonsourceibias.t16 gnd.t303 gnd.t273 sky130_fd_pr__nfet_01v8 ad=1.155 pd=7.33 as=1.155 ps=7.33 w=7 l=1
X3 a_n2140_13878.t23 a_n2318_13878.t52 vdd.t97 vdd.t96 sky130_fd_pr__pfet_01v8 ad=1.485 pd=9.33 as=1.485 ps=9.33 w=9 l=0.5
X4 a_n2140_13878.t15 a_n2318_13878.t12 a_n2318_13878.t13 vdd.t12 sky130_fd_pr__pfet_01v8 ad=1.485 pd=9.33 as=1.485 ps=9.33 w=9 l=0.5
X5 CSoutput.t184 a_n2318_8322.t26 sky130_fd_pr__cap_mim_m3_1 l=12 w=12
X6 vdd.t294 a_n8300_8799.t37 CSoutput.t72 vdd.t234 sky130_fd_pr__pfet_01v8 ad=1.32 pd=8.33 as=1.32 ps=8.33 w=8 l=0.5
X7 CSoutput.t60 a_n8300_8799.t38 vdd.t293 vdd.t156 sky130_fd_pr__pfet_01v8 ad=1.32 pd=8.33 as=3.12 ps=16.78 w=8 l=0.5
X8 CSoutput.t75 a_n8300_8799.t39 vdd.t292 vdd.t148 sky130_fd_pr__pfet_01v8 ad=1.32 pd=8.33 as=1.32 ps=8.33 w=8 l=0.5
X9 gnd.t302 commonsourceibias.t65 CSoutput.t114 gnd.t268 sky130_fd_pr__nfet_01v8 ad=1.155 pd=7.33 as=1.155 ps=7.33 w=7 l=1
X10 gnd.t148 gnd.t146 gnd.t147 gnd.t50 sky130_fd_pr__nfet_01v8 ad=2.73 pd=14.78 as=0 ps=0 w=7 l=1
X11 gnd.t301 commonsourceibias.t14 commonsourceibias.t15 gnd.t179 sky130_fd_pr__nfet_01v8 ad=1.155 pd=7.33 as=1.155 ps=7.33 w=7 l=1
X12 gnd.t300 commonsourceibias.t66 CSoutput.t113 gnd.t179 sky130_fd_pr__nfet_01v8 ad=1.155 pd=7.33 as=1.155 ps=7.33 w=7 l=1
X13 a_n2318_8322.t23 a_n2318_13878.t53 a_n8300_8799.t11 vdd.t98 sky130_fd_pr__pfet_01v8 ad=1.485 pd=9.33 as=1.485 ps=9.33 w=9 l=0.5
X14 output.t18 CSoutput.t185 vdd.t118 gnd.t164 sky130_fd_pr__nfet_01v8 ad=0.825 pd=5.33 as=0.825 ps=5.33 w=5 l=1
X15 CSoutput.t63 a_n8300_8799.t40 vdd.t291 vdd.t190 sky130_fd_pr__pfet_01v8 ad=1.32 pd=8.33 as=1.32 ps=8.33 w=8 l=0.5
X16 gnd.t145 gnd.t143 plus.t4 gnd.t144 sky130_fd_pr__nfet_01v8 ad=0.39 pd=2.78 as=0.165 ps=1.33 w=1 l=0.5
X17 a_n8300_8799.t35 plus.t5 a_n2903_n3924.t42 gnd.t17 sky130_fd_pr__nfet_01v8 ad=1.155 pd=7.33 as=1.155 ps=7.33 w=7 l=0.5
X18 gnd.t299 commonsourceibias.t67 CSoutput.t112 gnd.t212 sky130_fd_pr__nfet_01v8 ad=1.155 pd=7.33 as=1.155 ps=7.33 w=7 l=1
X19 vdd.t290 a_n8300_8799.t41 CSoutput.t23 vdd.t227 sky130_fd_pr__pfet_01v8 ad=1.32 pd=8.33 as=1.32 ps=8.33 w=8 l=0.5
X20 minus.t4 gnd.t140 gnd.t142 gnd.t141 sky130_fd_pr__nfet_01v8 ad=0.165 pd=1.33 as=0.165 ps=1.33 w=1 l=0.5
X21 gnd.t298 commonsourceibias.t12 commonsourceibias.t13 gnd.t224 sky130_fd_pr__nfet_01v8 ad=1.155 pd=7.33 as=1.155 ps=7.33 w=7 l=1
X22 a_n8300_8799.t32 a_n2318_13878.t54 a_n2318_8322.t22 vdd.t135 sky130_fd_pr__pfet_01v8 ad=1.485 pd=9.33 as=3.51 ps=18.78 w=9 l=0.5
X23 vdd.t289 a_n8300_8799.t42 CSoutput.t77 vdd.t252 sky130_fd_pr__pfet_01v8 ad=1.32 pd=8.33 as=1.32 ps=8.33 w=8 l=0.5
X24 vdd.t288 a_n8300_8799.t43 CSoutput.t81 vdd.t142 sky130_fd_pr__pfet_01v8 ad=1.32 pd=8.33 as=1.32 ps=8.33 w=8 l=0.5
X25 CSoutput.t55 a_n8300_8799.t44 vdd.t287 vdd.t198 sky130_fd_pr__pfet_01v8 ad=1.32 pd=8.33 as=1.32 ps=8.33 w=8 l=0.5
X26 vdd.t286 a_n8300_8799.t45 CSoutput.t11 vdd.t249 sky130_fd_pr__pfet_01v8 ad=1.32 pd=8.33 as=1.32 ps=8.33 w=8 l=0.5
X27 output.t0 outputibias.t8 gnd.t19 gnd.t18 sky130_fd_pr__nfet_01v8 ad=2.34 pd=12.78 as=2.34 ps=12.78 w=6 l=2
X28 CSoutput.t186 a_n2318_8322.t27 sky130_fd_pr__cap_mim_m3_1 l=12 w=12
X29 a_n8300_8799.t33 a_n2318_13878.t55 a_n2318_8322.t21 vdd.t91 sky130_fd_pr__pfet_01v8 ad=1.485 pd=9.33 as=3.51 ps=18.78 w=9 l=0.5
X30 a_n8300_8799.t12 plus.t6 a_n2903_n3924.t41 gnd.t29 sky130_fd_pr__nfet_01v8 ad=1.155 pd=7.33 as=1.155 ps=7.33 w=7 l=0.5
X31 CSoutput.t111 commonsourceibias.t68 gnd.t297 gnd.t198 sky130_fd_pr__nfet_01v8 ad=1.155 pd=7.33 as=1.155 ps=7.33 w=7 l=1
X32 gnd.t139 gnd.t137 gnd.t138 gnd.t83 sky130_fd_pr__nfet_01v8 ad=2.73 pd=14.78 as=0 ps=0 w=7 l=1
X33 gnd.t296 commonsourceibias.t10 commonsourceibias.t11 gnd.t264 sky130_fd_pr__nfet_01v8 ad=1.155 pd=7.33 as=1.155 ps=7.33 w=7 l=1
X34 output.t19 outputibias.t9 gnd.t318 gnd.t317 sky130_fd_pr__nfet_01v8 ad=2.34 pd=12.78 as=2.34 ps=12.78 w=6 l=2
X35 vdd.t89 vdd.t87 vdd.t88 vdd.t15 sky130_fd_pr__pfet_01v8 ad=3.51 pd=18.78 as=0 ps=0 w=9 l=0.5
X36 CSoutput.t78 a_n8300_8799.t46 vdd.t285 vdd.t239 sky130_fd_pr__pfet_01v8 ad=1.32 pd=8.33 as=1.32 ps=8.33 w=8 l=0.5
X37 vdd.t106 CSoutput.t187 output.t17 gnd.t163 sky130_fd_pr__nfet_01v8 ad=0.825 pd=5.33 as=0.825 ps=5.33 w=5 l=1
X38 CSoutput.t110 commonsourceibias.t69 gnd.t295 gnd.t193 sky130_fd_pr__nfet_01v8 ad=1.155 pd=7.33 as=1.155 ps=7.33 w=7 l=1
X39 a_n2903_n3924.t44 diffpairibias.t16 gnd.t308 gnd.t307 sky130_fd_pr__nfet_01v8 ad=2.73 pd=14.78 as=2.73 ps=14.78 w=7 l=1
X40 a_n2903_n3924.t46 minus.t5 a_n2318_13878.t50 gnd.t35 sky130_fd_pr__nfet_01v8 ad=1.155 pd=7.33 as=1.155 ps=7.33 w=7 l=0.5
X41 CSoutput.t168 a_n8300_8799.t47 vdd.t284 vdd.t184 sky130_fd_pr__pfet_01v8 ad=1.32 pd=8.33 as=3.12 ps=16.78 w=8 l=0.5
X42 CSoutput.t70 a_n8300_8799.t48 vdd.t283 vdd.t206 sky130_fd_pr__pfet_01v8 ad=1.32 pd=8.33 as=1.32 ps=8.33 w=8 l=0.5
X43 a_n2903_n3924.t40 plus.t7 a_n8300_8799.t16 gnd.t36 sky130_fd_pr__nfet_01v8 ad=1.155 pd=7.33 as=1.155 ps=7.33 w=7 l=0.5
X44 vdd.t282 a_n8300_8799.t49 CSoutput.t48 vdd.t142 sky130_fd_pr__pfet_01v8 ad=1.32 pd=8.33 as=1.32 ps=8.33 w=8 l=0.5
X45 a_n2318_13878.t45 minus.t6 a_n2903_n3924.t19 gnd.t39 sky130_fd_pr__nfet_01v8 ad=1.155 pd=7.33 as=1.155 ps=7.33 w=7 l=0.5
X46 output.t1 outputibias.t10 gnd.t24 gnd.t23 sky130_fd_pr__nfet_01v8 ad=2.34 pd=12.78 as=2.34 ps=12.78 w=6 l=2
X47 CSoutput.t109 commonsourceibias.t70 gnd.t294 gnd.t189 sky130_fd_pr__nfet_01v8 ad=1.155 pd=7.33 as=1.155 ps=7.33 w=7 l=1
X48 a_n2903_n3924.t39 plus.t8 a_n8300_8799.t20 gnd.t7 sky130_fd_pr__nfet_01v8 ad=1.155 pd=7.33 as=1.155 ps=7.33 w=7 l=0.5
X49 a_n2903_n3924.t7 minus.t7 a_n2318_13878.t5 gnd.t10 sky130_fd_pr__nfet_01v8 ad=1.155 pd=7.33 as=1.155 ps=7.33 w=7 l=0.5
X50 CSoutput.t20 a_n8300_8799.t50 vdd.t281 vdd.t148 sky130_fd_pr__pfet_01v8 ad=1.32 pd=8.33 as=1.32 ps=8.33 w=8 l=0.5
X51 output.t16 CSoutput.t188 vdd.t108 gnd.t162 sky130_fd_pr__nfet_01v8 ad=1.95 pd=10.78 as=0.825 ps=5.33 w=5 l=1
X52 gnd.t293 commonsourceibias.t28 commonsourceibias.t29 gnd.t231 sky130_fd_pr__nfet_01v8 ad=2.73 pd=14.78 as=1.155 ps=7.33 w=7 l=1
X53 a_n2140_13878.t14 a_n2318_13878.t22 a_n2318_13878.t23 vdd.t92 sky130_fd_pr__pfet_01v8 ad=1.485 pd=9.33 as=1.485 ps=9.33 w=9 l=0.5
X54 CSoutput.t122 commonsourceibias.t71 gnd.t292 gnd.t273 sky130_fd_pr__nfet_01v8 ad=1.155 pd=7.33 as=1.155 ps=7.33 w=7 l=1
X55 a_n2318_13878.t25 a_n2318_13878.t24 a_n2140_13878.t13 vdd.t8 sky130_fd_pr__pfet_01v8 ad=1.485 pd=9.33 as=1.485 ps=9.33 w=9 l=0.5
X56 CSoutput.t47 a_n8300_8799.t51 vdd.t280 vdd.t190 sky130_fd_pr__pfet_01v8 ad=1.32 pd=8.33 as=1.32 ps=8.33 w=8 l=0.5
X57 a_n2903_n3924.t45 minus.t8 a_n2318_13878.t49 gnd.t14 sky130_fd_pr__nfet_01v8 ad=1.155 pd=7.33 as=1.155 ps=7.33 w=7 l=0.5
X58 vdd.t86 vdd.t84 vdd.t85 vdd.t61 sky130_fd_pr__pfet_01v8 ad=3.51 pd=18.78 as=0 ps=0 w=9 l=0.5
X59 vdd.t279 a_n8300_8799.t52 CSoutput.t9 vdd.t227 sky130_fd_pr__pfet_01v8 ad=1.32 pd=8.33 as=1.32 ps=8.33 w=8 l=0.5
X60 diffpairibias.t15 diffpairibias.t14 gnd.t314 gnd.t313 sky130_fd_pr__nfet_01v8 ad=2.73 pd=14.78 as=2.73 ps=14.78 w=7 l=1
X61 gnd.t136 gnd.t134 gnd.t135 gnd.t65 sky130_fd_pr__nfet_01v8 ad=2.73 pd=14.78 as=0 ps=0 w=7 l=0.5
X62 a_n8300_8799.t27 a_n2318_13878.t56 a_n2318_8322.t20 vdd.t133 sky130_fd_pr__pfet_01v8 ad=1.485 pd=9.33 as=1.485 ps=9.33 w=9 l=0.5
X63 CSoutput.t61 a_n8300_8799.t53 vdd.t278 vdd.t236 sky130_fd_pr__pfet_01v8 ad=1.32 pd=8.33 as=1.32 ps=8.33 w=8 l=0.5
X64 gnd.t133 gnd.t132 plus.t3 gnd.t65 sky130_fd_pr__nfet_01v8 ad=0.165 pd=1.33 as=0.165 ps=1.33 w=1 l=0.5
X65 vdd.t277 a_n8300_8799.t54 CSoutput.t18 vdd.t158 sky130_fd_pr__pfet_01v8 ad=1.32 pd=8.33 as=1.32 ps=8.33 w=8 l=0.5
X66 vdd.t276 a_n8300_8799.t55 CSoutput.t6 vdd.t249 sky130_fd_pr__pfet_01v8 ad=1.32 pd=8.33 as=1.32 ps=8.33 w=8 l=0.5
X67 minus.t3 gnd.t129 gnd.t131 gnd.t130 sky130_fd_pr__nfet_01v8 ad=0.165 pd=1.33 as=0.165 ps=1.33 w=1 l=0.5
X68 gnd.t291 commonsourceibias.t72 CSoutput.t121 gnd.t268 sky130_fd_pr__nfet_01v8 ad=1.155 pd=7.33 as=1.155 ps=7.33 w=7 l=1
X69 diffpairibias.t13 diffpairibias.t12 gnd.t310 gnd.t309 sky130_fd_pr__nfet_01v8 ad=2.73 pd=14.78 as=2.73 ps=14.78 w=7 l=1
X70 gnd.t290 commonsourceibias.t73 CSoutput.t120 gnd.t177 sky130_fd_pr__nfet_01v8 ad=1.155 pd=7.33 as=1.155 ps=7.33 w=7 l=1
X71 CSoutput.t26 a_n8300_8799.t56 vdd.t275 vdd.t166 sky130_fd_pr__pfet_01v8 ad=1.32 pd=8.33 as=1.32 ps=8.33 w=8 l=0.5
X72 output.t15 CSoutput.t189 vdd.t115 gnd.t161 sky130_fd_pr__nfet_01v8 ad=0.825 pd=5.33 as=0.825 ps=5.33 w=5 l=1
X73 commonsourceibias.t27 commonsourceibias.t26 gnd.t289 gnd.t198 sky130_fd_pr__nfet_01v8 ad=1.155 pd=7.33 as=1.155 ps=7.33 w=7 l=1
X74 vdd.t117 CSoutput.t190 output.t14 gnd.t160 sky130_fd_pr__nfet_01v8 ad=0.825 pd=5.33 as=1.95 ps=10.78 w=5 l=1
X75 gnd.t288 commonsourceibias.t74 CSoutput.t119 gnd.t264 sky130_fd_pr__nfet_01v8 ad=1.155 pd=7.33 as=1.155 ps=7.33 w=7 l=1
X76 vdd.t274 a_n8300_8799.t57 CSoutput.t161 vdd.t144 sky130_fd_pr__pfet_01v8 ad=1.32 pd=8.33 as=1.32 ps=8.33 w=8 l=0.5
X77 CSoutput.t44 a_n8300_8799.t58 vdd.t273 vdd.t258 sky130_fd_pr__pfet_01v8 ad=1.32 pd=8.33 as=1.32 ps=8.33 w=8 l=0.5
X78 vdd.t83 vdd.t81 vdd.t82 vdd.t51 sky130_fd_pr__pfet_01v8 ad=3.12 pd=16.78 as=0 ps=0 w=8 l=0.5
X79 CSoutput.t33 a_n8300_8799.t59 vdd.t272 vdd.t184 sky130_fd_pr__pfet_01v8 ad=1.32 pd=8.33 as=3.12 ps=16.78 w=8 l=0.5
X80 CSoutput.t24 a_n8300_8799.t60 vdd.t271 vdd.t209 sky130_fd_pr__pfet_01v8 ad=1.32 pd=8.33 as=1.32 ps=8.33 w=8 l=0.5
X81 CSoutput.t162 a_n8300_8799.t61 vdd.t270 vdd.t258 sky130_fd_pr__pfet_01v8 ad=1.32 pd=8.33 as=1.32 ps=8.33 w=8 l=0.5
X82 commonsourceibias.t25 commonsourceibias.t24 gnd.t287 gnd.t181 sky130_fd_pr__nfet_01v8 ad=1.155 pd=7.33 as=1.155 ps=7.33 w=7 l=1
X83 gnd.t286 commonsourceibias.t75 CSoutput.t118 gnd.t212 sky130_fd_pr__nfet_01v8 ad=1.155 pd=7.33 as=1.155 ps=7.33 w=7 l=1
X84 CSoutput.t191 a_n2318_8322.t24 sky130_fd_pr__cap_mim_m3_1 l=12 w=12
X85 commonsourceibias.t23 commonsourceibias.t22 gnd.t285 gnd.t214 sky130_fd_pr__nfet_01v8 ad=1.155 pd=7.33 as=1.155 ps=7.33 w=7 l=1
X86 a_n8300_8799.t4 plus.t9 a_n2903_n3924.t38 gnd.t8 sky130_fd_pr__nfet_01v8 ad=1.155 pd=7.33 as=1.155 ps=7.33 w=7 l=0.5
X87 gnd.t282 commonsourceibias.t76 CSoutput.t116 gnd.t261 sky130_fd_pr__nfet_01v8 ad=1.155 pd=7.33 as=1.155 ps=7.33 w=7 l=1
X88 CSoutput.t117 commonsourceibias.t77 gnd.t284 gnd.t250 sky130_fd_pr__nfet_01v8 ad=1.155 pd=7.33 as=2.73 ps=14.78 w=7 l=1
X89 gnd.t283 commonsourceibias.t20 commonsourceibias.t21 gnd.t261 sky130_fd_pr__nfet_01v8 ad=1.155 pd=7.33 as=1.155 ps=7.33 w=7 l=1
X90 a_n2903_n3924.t43 diffpairibias.t17 gnd.t306 gnd.t305 sky130_fd_pr__nfet_01v8 ad=2.73 pd=14.78 as=2.73 ps=14.78 w=7 l=1
X91 vdd.t269 a_n8300_8799.t62 CSoutput.t17 vdd.t224 sky130_fd_pr__pfet_01v8 ad=1.32 pd=8.33 as=1.32 ps=8.33 w=8 l=0.5
X92 a_n2903_n3924.t47 minus.t9 a_n2318_13878.t51 gnd.t32 sky130_fd_pr__nfet_01v8 ad=1.155 pd=7.33 as=1.155 ps=7.33 w=7 l=0.5
X93 vdd.t268 a_n8300_8799.t63 CSoutput.t166 vdd.t255 sky130_fd_pr__pfet_01v8 ad=1.32 pd=8.33 as=1.32 ps=8.33 w=8 l=0.5
X94 a_n2318_13878.t15 a_n2318_13878.t14 a_n2140_13878.t12 vdd.t98 sky130_fd_pr__pfet_01v8 ad=1.485 pd=9.33 as=1.485 ps=9.33 w=9 l=0.5
X95 vdd.t267 a_n8300_8799.t64 CSoutput.t93 vdd.t200 sky130_fd_pr__pfet_01v8 ad=1.32 pd=8.33 as=1.32 ps=8.33 w=8 l=0.5
X96 vdd.t266 a_n8300_8799.t65 CSoutput.t37 vdd.t232 sky130_fd_pr__pfet_01v8 ad=1.32 pd=8.33 as=1.32 ps=8.33 w=8 l=0.5
X97 a_n8300_8799.t28 a_n2318_13878.t57 a_n2318_8322.t19 vdd.t134 sky130_fd_pr__pfet_01v8 ad=1.485 pd=9.33 as=1.485 ps=9.33 w=9 l=0.5
X98 vdd.t265 a_n8300_8799.t66 CSoutput.t91 vdd.t252 sky130_fd_pr__pfet_01v8 ad=1.32 pd=8.33 as=1.32 ps=8.33 w=8 l=0.5
X99 a_n2318_13878.t33 a_n2318_13878.t32 a_n2140_13878.t11 vdd.t90 sky130_fd_pr__pfet_01v8 ad=3.51 pd=18.78 as=1.485 ps=9.33 w=9 l=0.5
X100 gnd.t281 commonsourceibias.t18 commonsourceibias.t19 gnd.t253 sky130_fd_pr__nfet_01v8 ad=2.73 pd=14.78 as=1.155 ps=7.33 w=7 l=1
X101 a_n2318_13878.t40 minus.t10 a_n2903_n3924.t10 gnd.t13 sky130_fd_pr__nfet_01v8 ad=1.155 pd=7.33 as=1.155 ps=7.33 w=7 l=0.5
X102 gnd.t121 gnd.t119 gnd.t120 gnd.t83 sky130_fd_pr__nfet_01v8 ad=2.73 pd=14.78 as=0 ps=0 w=7 l=1
X103 a_n2903_n3924.t37 plus.t10 a_n8300_8799.t13 gnd.t20 sky130_fd_pr__nfet_01v8 ad=1.155 pd=7.33 as=1.155 ps=7.33 w=7 l=0.5
X104 commonsourceibias.t37 commonsourceibias.t36 gnd.t280 gnd.t189 sky130_fd_pr__nfet_01v8 ad=1.155 pd=7.33 as=1.155 ps=7.33 w=7 l=1
X105 CSoutput.t129 commonsourceibias.t78 gnd.t279 gnd.t193 sky130_fd_pr__nfet_01v8 ad=1.155 pd=7.33 as=1.155 ps=7.33 w=7 l=1
X106 vdd.t264 a_n8300_8799.t67 CSoutput.t176 vdd.t163 sky130_fd_pr__pfet_01v8 ad=1.32 pd=8.33 as=1.32 ps=8.33 w=8 l=0.5
X107 CSoutput.t90 a_n8300_8799.t68 vdd.t263 vdd.t204 sky130_fd_pr__pfet_01v8 ad=1.32 pd=8.33 as=1.32 ps=8.33 w=8 l=0.5
X108 CSoutput.t128 commonsourceibias.t79 gnd.t278 gnd.t248 sky130_fd_pr__nfet_01v8 ad=1.155 pd=7.33 as=1.155 ps=7.33 w=7 l=1
X109 vdd.t116 CSoutput.t192 output.t13 gnd.t159 sky130_fd_pr__nfet_01v8 ad=0.825 pd=5.33 as=0.825 ps=5.33 w=5 l=1
X110 a_n2903_n3924.t6 minus.t11 a_n2318_13878.t4 gnd.t9 sky130_fd_pr__nfet_01v8 ad=2.73 pd=14.78 as=1.155 ps=7.33 w=7 l=0.5
X111 vdd.t80 vdd.t78 vdd.t79 vdd.t65 sky130_fd_pr__pfet_01v8 ad=3.51 pd=18.78 as=0 ps=0 w=9 l=0.5
X112 vdd.t77 vdd.t75 vdd.t76 vdd.t27 sky130_fd_pr__pfet_01v8 ad=3.12 pd=16.78 as=0 ps=0 w=8 l=0.5
X113 CSoutput.t127 commonsourceibias.t80 gnd.t277 gnd.t255 sky130_fd_pr__nfet_01v8 ad=1.155 pd=7.33 as=1.155 ps=7.33 w=7 l=1
X114 CSoutput.t88 a_n8300_8799.t69 vdd.t262 vdd.t166 sky130_fd_pr__pfet_01v8 ad=1.32 pd=8.33 as=1.32 ps=8.33 w=8 l=0.5
X115 vdd.t74 vdd.t71 vdd.t73 vdd.t72 sky130_fd_pr__pfet_01v8 ad=3.51 pd=18.78 as=0 ps=0 w=9 l=0.5
X116 gnd.t276 commonsourceibias.t81 CSoutput.t126 gnd.t253 sky130_fd_pr__nfet_01v8 ad=2.73 pd=14.78 as=1.155 ps=7.33 w=7 l=1
X117 commonsourceibias.t35 commonsourceibias.t34 gnd.t275 gnd.t210 sky130_fd_pr__nfet_01v8 ad=1.155 pd=7.33 as=1.155 ps=7.33 w=7 l=1
X118 CSoutput.t125 commonsourceibias.t82 gnd.t274 gnd.t273 sky130_fd_pr__nfet_01v8 ad=1.155 pd=7.33 as=1.155 ps=7.33 w=7 l=1
X119 CSoutput.t64 a_n8300_8799.t70 vdd.t261 vdd.t136 sky130_fd_pr__pfet_01v8 ad=1.32 pd=8.33 as=1.32 ps=8.33 w=8 l=0.5
X120 CSoutput.t193 a_n2318_8322.t26 sky130_fd_pr__cap_mim_m3_1 l=12 w=12
X121 vdd.t260 a_n8300_8799.t71 CSoutput.t172 vdd.t255 sky130_fd_pr__pfet_01v8 ad=1.32 pd=8.33 as=1.32 ps=8.33 w=8 l=0.5
X122 vdd.t5 a_n2318_13878.t58 a_n2318_8322.t7 vdd.t4 sky130_fd_pr__pfet_01v8 ad=1.485 pd=9.33 as=1.485 ps=9.33 w=9 l=0.5
X123 a_n2318_13878.t31 a_n2318_13878.t30 a_n2140_13878.t10 vdd.t99 sky130_fd_pr__pfet_01v8 ad=3.51 pd=18.78 as=1.485 ps=9.33 w=9 l=0.5
X124 vdd.t70 vdd.t68 vdd.t69 vdd.t51 sky130_fd_pr__pfet_01v8 ad=3.12 pd=16.78 as=0 ps=0 w=8 l=0.5
X125 a_n2318_8322.t6 a_n2318_13878.t59 vdd.t7 vdd.t6 sky130_fd_pr__pfet_01v8 ad=1.485 pd=9.33 as=1.485 ps=9.33 w=9 l=0.5
X126 a_n2903_n3924.t1 diffpairibias.t18 gnd.t2 gnd.t1 sky130_fd_pr__nfet_01v8 ad=2.73 pd=14.78 as=2.73 ps=14.78 w=7 l=1
X127 CSoutput.t14 a_n8300_8799.t72 vdd.t259 vdd.t258 sky130_fd_pr__pfet_01v8 ad=1.32 pd=8.33 as=1.32 ps=8.33 w=8 l=0.5
X128 CSoutput.t1 a_n8300_8799.t73 vdd.t257 vdd.t209 sky130_fd_pr__pfet_01v8 ad=1.32 pd=8.33 as=1.32 ps=8.33 w=8 l=0.5
X129 output.t2 outputibias.t11 gnd.t38 gnd.t37 sky130_fd_pr__nfet_01v8 ad=2.34 pd=12.78 as=2.34 ps=12.78 w=6 l=2
X130 a_n2318_13878.t44 minus.t12 a_n2903_n3924.t18 gnd.t4 sky130_fd_pr__nfet_01v8 ad=1.155 pd=7.33 as=1.155 ps=7.33 w=7 l=0.5
X131 gnd.t272 commonsourceibias.t83 CSoutput.t124 gnd.t229 sky130_fd_pr__nfet_01v8 ad=1.155 pd=7.33 as=1.155 ps=7.33 w=7 l=1
X132 CSoutput.t194 a_n2318_8322.t25 sky130_fd_pr__cap_mim_m3_1 l=12 w=12
X133 commonsourceibias.t33 commonsourceibias.t32 gnd.t271 gnd.t255 sky130_fd_pr__nfet_01v8 ad=1.155 pd=7.33 as=1.155 ps=7.33 w=7 l=1
X134 a_n2903_n3924.t36 plus.t11 a_n8300_8799.t8 gnd.t22 sky130_fd_pr__nfet_01v8 ad=1.155 pd=7.33 as=1.155 ps=7.33 w=7 l=0.5
X135 vdd.t130 a_n2318_13878.t60 a_n2140_13878.t22 vdd.t129 sky130_fd_pr__pfet_01v8 ad=1.485 pd=9.33 as=1.485 ps=9.33 w=9 l=0.5
X136 vdd.t67 vdd.t64 vdd.t66 vdd.t65 sky130_fd_pr__pfet_01v8 ad=3.51 pd=18.78 as=0 ps=0 w=9 l=0.5
X137 vdd.t256 a_n8300_8799.t74 CSoutput.t178 vdd.t255 sky130_fd_pr__pfet_01v8 ad=1.32 pd=8.33 as=1.32 ps=8.33 w=8 l=0.5
X138 vdd.t254 a_n8300_8799.t75 CSoutput.t71 vdd.t232 sky130_fd_pr__pfet_01v8 ad=1.32 pd=8.33 as=1.32 ps=8.33 w=8 l=0.5
X139 gnd.t270 commonsourceibias.t84 CSoutput.t123 gnd.t177 sky130_fd_pr__nfet_01v8 ad=1.155 pd=7.33 as=1.155 ps=7.33 w=7 l=1
X140 vdd.t253 a_n8300_8799.t76 CSoutput.t40 vdd.t252 sky130_fd_pr__pfet_01v8 ad=1.32 pd=8.33 as=1.32 ps=8.33 w=8 l=0.5
X141 gnd.t269 commonsourceibias.t30 commonsourceibias.t31 gnd.t268 sky130_fd_pr__nfet_01v8 ad=1.155 pd=7.33 as=1.155 ps=7.33 w=7 l=1
X142 a_n8300_8799.t29 plus.t12 a_n2903_n3924.t35 gnd.t0 sky130_fd_pr__nfet_01v8 ad=1.155 pd=7.33 as=2.73 ps=14.78 w=7 l=0.5
X143 vdd.t63 vdd.t60 vdd.t62 vdd.t61 sky130_fd_pr__pfet_01v8 ad=3.51 pd=18.78 as=0 ps=0 w=9 l=0.5
X144 a_n2318_8322.t5 a_n2318_13878.t61 vdd.t132 vdd.t131 sky130_fd_pr__pfet_01v8 ad=3.51 pd=18.78 as=1.485 ps=9.33 w=9 l=0.5
X145 commonsourceibias.t41 commonsourceibias.t40 gnd.t267 gnd.t218 sky130_fd_pr__nfet_01v8 ad=1.155 pd=7.33 as=1.155 ps=7.33 w=7 l=1
X146 gnd.t266 commonsourceibias.t85 CSoutput.t138 gnd.t221 sky130_fd_pr__nfet_01v8 ad=1.155 pd=7.33 as=1.155 ps=7.33 w=7 l=1
X147 a_n2318_13878.t7 minus.t13 a_n2903_n3924.t9 gnd.t12 sky130_fd_pr__nfet_01v8 ad=1.155 pd=7.33 as=1.155 ps=7.33 w=7 l=0.5
X148 gnd.t265 commonsourceibias.t86 CSoutput.t137 gnd.t264 sky130_fd_pr__nfet_01v8 ad=1.155 pd=7.33 as=1.155 ps=7.33 w=7 l=1
X149 a_n8300_8799.t2 a_n2318_13878.t62 a_n2318_8322.t18 vdd.t11 sky130_fd_pr__pfet_01v8 ad=1.485 pd=9.33 as=1.485 ps=9.33 w=9 l=0.5
X150 CSoutput.t30 a_n8300_8799.t77 vdd.t251 vdd.t175 sky130_fd_pr__pfet_01v8 ad=1.32 pd=8.33 as=1.32 ps=8.33 w=8 l=0.5
X151 diffpairibias.t11 diffpairibias.t10 gnd.t170 gnd.t169 sky130_fd_pr__nfet_01v8 ad=2.73 pd=14.78 as=2.73 ps=14.78 w=7 l=1
X152 vdd.t250 a_n8300_8799.t78 CSoutput.t66 vdd.t249 sky130_fd_pr__pfet_01v8 ad=1.32 pd=8.33 as=1.32 ps=8.33 w=8 l=0.5
X153 a_n2318_13878.t21 a_n2318_13878.t20 a_n2140_13878.t9 vdd.t13 sky130_fd_pr__pfet_01v8 ad=1.485 pd=9.33 as=1.485 ps=9.33 w=9 l=0.5
X154 vdd.t248 a_n8300_8799.t79 CSoutput.t86 vdd.t163 sky130_fd_pr__pfet_01v8 ad=1.32 pd=8.33 as=1.32 ps=8.33 w=8 l=0.5
X155 a_n8300_8799.t3 a_n2318_13878.t63 a_n2318_8322.t17 vdd.t12 sky130_fd_pr__pfet_01v8 ad=1.485 pd=9.33 as=1.485 ps=9.33 w=9 l=0.5
X156 CSoutput.t94 a_n8300_8799.t80 vdd.t247 vdd.t204 sky130_fd_pr__pfet_01v8 ad=1.32 pd=8.33 as=1.32 ps=8.33 w=8 l=0.5
X157 gnd.t128 gnd.t125 gnd.t127 gnd.t126 sky130_fd_pr__nfet_01v8 ad=2.34 pd=12.78 as=0 ps=0 w=6 l=2
X158 gnd.t263 commonsourceibias.t87 CSoutput.t136 gnd.t238 sky130_fd_pr__nfet_01v8 ad=1.155 pd=7.33 as=1.155 ps=7.33 w=7 l=1
X159 a_n2140_13878.t8 a_n2318_13878.t18 a_n2318_13878.t19 vdd.t134 sky130_fd_pr__pfet_01v8 ad=1.485 pd=9.33 as=1.485 ps=9.33 w=9 l=0.5
X160 vdd.t59 vdd.t57 vdd.t58 vdd.t27 sky130_fd_pr__pfet_01v8 ad=3.12 pd=16.78 as=0 ps=0 w=8 l=0.5
X161 gnd.t262 commonsourceibias.t88 CSoutput.t135 gnd.t261 sky130_fd_pr__nfet_01v8 ad=1.155 pd=7.33 as=1.155 ps=7.33 w=7 l=1
X162 CSoutput.t146 commonsourceibias.t89 gnd.t251 gnd.t250 sky130_fd_pr__nfet_01v8 ad=1.155 pd=7.33 as=2.73 ps=14.78 w=7 l=1
X163 plus.t2 gnd.t122 gnd.t124 gnd.t123 sky130_fd_pr__nfet_01v8 ad=0.165 pd=1.33 as=0.165 ps=1.33 w=1 l=0.5
X164 commonsourceibias.t39 commonsourceibias.t38 gnd.t260 gnd.t250 sky130_fd_pr__nfet_01v8 ad=1.155 pd=7.33 as=2.73 ps=14.78 w=7 l=1
X165 gnd.t118 gnd.t116 minus.t2 gnd.t117 sky130_fd_pr__nfet_01v8 ad=0.39 pd=2.78 as=0.165 ps=1.33 w=1 l=0.5
X166 CSoutput.t87 a_n8300_8799.t81 vdd.t246 vdd.t236 sky130_fd_pr__pfet_01v8 ad=1.32 pd=8.33 as=1.32 ps=8.33 w=8 l=0.5
X167 a_n2318_13878.t6 minus.t14 a_n2903_n3924.t8 gnd.t11 sky130_fd_pr__nfet_01v8 ad=1.155 pd=7.33 as=1.155 ps=7.33 w=7 l=0.5
X168 vdd.t1 a_n2318_13878.t64 a_n2318_8322.t4 vdd.t0 sky130_fd_pr__pfet_01v8 ad=1.485 pd=9.33 as=3.51 ps=18.78 w=9 l=0.5
X169 CSoutput.t134 commonsourceibias.t90 gnd.t259 gnd.t202 sky130_fd_pr__nfet_01v8 ad=1.155 pd=7.33 as=1.155 ps=7.33 w=7 l=1
X170 a_n2140_13878.t7 a_n2318_13878.t28 a_n2318_13878.t29 vdd.t135 sky130_fd_pr__pfet_01v8 ad=1.485 pd=9.33 as=3.51 ps=18.78 w=9 l=0.5
X171 vdd.t245 a_n8300_8799.t82 CSoutput.t95 vdd.t234 sky130_fd_pr__pfet_01v8 ad=1.32 pd=8.33 as=1.32 ps=8.33 w=8 l=0.5
X172 a_n2318_13878.t37 a_n2318_13878.t36 a_n2140_13878.t6 vdd.t126 sky130_fd_pr__pfet_01v8 ad=1.485 pd=9.33 as=1.485 ps=9.33 w=9 l=0.5
X173 vdd.t244 a_n8300_8799.t83 CSoutput.t10 vdd.t177 sky130_fd_pr__pfet_01v8 ad=1.32 pd=8.33 as=1.32 ps=8.33 w=8 l=0.5
X174 CSoutput.t133 commonsourceibias.t91 gnd.t258 gnd.t248 sky130_fd_pr__nfet_01v8 ad=1.155 pd=7.33 as=1.155 ps=7.33 w=7 l=1
X175 a_n2903_n3924.t3 diffpairibias.t19 gnd.t6 gnd.t5 sky130_fd_pr__nfet_01v8 ad=2.73 pd=14.78 as=2.73 ps=14.78 w=7 l=1
X176 gnd.t115 gnd.t112 gnd.t114 gnd.t113 sky130_fd_pr__nfet_01v8 ad=2.73 pd=14.78 as=0 ps=0 w=7 l=1
X177 a_n2903_n3924.t17 diffpairibias.t20 gnd.t168 gnd.t167 sky130_fd_pr__nfet_01v8 ad=2.73 pd=14.78 as=2.73 ps=14.78 w=7 l=1
X178 a_n2318_13878.t41 minus.t15 a_n2903_n3924.t11 gnd.t17 sky130_fd_pr__nfet_01v8 ad=1.155 pd=7.33 as=1.155 ps=7.33 w=7 l=0.5
X179 vdd.t112 CSoutput.t195 output.t12 gnd.t158 sky130_fd_pr__nfet_01v8 ad=0.825 pd=5.33 as=0.825 ps=5.33 w=5 l=1
X180 CSoutput.t132 commonsourceibias.t92 gnd.t257 gnd.t185 sky130_fd_pr__nfet_01v8 ad=1.155 pd=7.33 as=1.155 ps=7.33 w=7 l=1
X181 CSoutput.t131 commonsourceibias.t93 gnd.t256 gnd.t255 sky130_fd_pr__nfet_01v8 ad=1.155 pd=7.33 as=1.155 ps=7.33 w=7 l=1
X182 vdd.t243 a_n8300_8799.t84 CSoutput.t35 vdd.t224 sky130_fd_pr__pfet_01v8 ad=1.32 pd=8.33 as=1.32 ps=8.33 w=8 l=0.5
X183 vdd.t242 a_n8300_8799.t85 CSoutput.t8 vdd.t182 sky130_fd_pr__pfet_01v8 ad=3.12 pd=16.78 as=1.32 ps=8.33 w=8 l=0.5
X184 gnd.t254 commonsourceibias.t94 CSoutput.t130 gnd.t253 sky130_fd_pr__nfet_01v8 ad=2.73 pd=14.78 as=1.155 ps=7.33 w=7 l=1
X185 gnd.t252 commonsourceibias.t95 CSoutput.t147 gnd.t231 sky130_fd_pr__nfet_01v8 ad=2.73 pd=14.78 as=1.155 ps=7.33 w=7 l=1
X186 gnd.t111 gnd.t109 minus.t1 gnd.t110 sky130_fd_pr__nfet_01v8 ad=0.165 pd=1.33 as=0.39 ps=2.78 w=1 l=0.5
X187 commonsourceibias.t45 commonsourceibias.t44 gnd.t249 gnd.t248 sky130_fd_pr__nfet_01v8 ad=1.155 pd=7.33 as=1.155 ps=7.33 w=7 l=1
X188 CSoutput.t145 commonsourceibias.t96 gnd.t247 gnd.t208 sky130_fd_pr__nfet_01v8 ad=1.155 pd=7.33 as=1.155 ps=7.33 w=7 l=1
X189 gnd.t108 gnd.t106 gnd.t107 gnd.t46 sky130_fd_pr__nfet_01v8 ad=2.73 pd=14.78 as=0 ps=0 w=7 l=0.5
X190 CSoutput.t7 a_n8300_8799.t86 vdd.t241 vdd.t140 sky130_fd_pr__pfet_01v8 ad=1.32 pd=8.33 as=1.32 ps=8.33 w=8 l=0.5
X191 gnd.t246 commonsourceibias.t97 CSoutput.t144 gnd.t229 sky130_fd_pr__nfet_01v8 ad=1.155 pd=7.33 as=1.155 ps=7.33 w=7 l=1
X192 CSoutput.t169 a_n8300_8799.t87 vdd.t240 vdd.t239 sky130_fd_pr__pfet_01v8 ad=1.32 pd=8.33 as=1.32 ps=8.33 w=8 l=0.5
X193 a_n2318_13878.t47 minus.t16 a_n2903_n3924.t21 gnd.t29 sky130_fd_pr__nfet_01v8 ad=1.155 pd=7.33 as=1.155 ps=7.33 w=7 l=0.5
X194 CSoutput.t62 a_n8300_8799.t88 vdd.t238 vdd.t216 sky130_fd_pr__pfet_01v8 ad=1.32 pd=8.33 as=1.32 ps=8.33 w=8 l=0.5
X195 gnd.t105 gnd.t103 gnd.t104 gnd.t69 sky130_fd_pr__nfet_01v8 ad=2.73 pd=14.78 as=0 ps=0 w=7 l=1
X196 CSoutput.t156 commonsourceibias.t98 gnd.t182 gnd.t181 sky130_fd_pr__nfet_01v8 ad=1.155 pd=7.33 as=1.155 ps=7.33 w=7 l=1
X197 diffpairibias.t9 diffpairibias.t8 gnd.t316 gnd.t315 sky130_fd_pr__nfet_01v8 ad=2.73 pd=14.78 as=2.73 ps=14.78 w=7 l=1
X198 a_n2140_13878.t21 a_n2318_13878.t65 vdd.t3 vdd.t2 sky130_fd_pr__pfet_01v8 ad=1.485 pd=9.33 as=1.485 ps=9.33 w=9 l=0.5
X199 vdd.t297 a_n2318_13878.t66 a_n2140_13878.t20 vdd.t296 sky130_fd_pr__pfet_01v8 ad=1.485 pd=9.33 as=1.485 ps=9.33 w=9 l=0.5
X200 CSoutput.t0 a_n8300_8799.t89 vdd.t237 vdd.t236 sky130_fd_pr__pfet_01v8 ad=1.32 pd=8.33 as=1.32 ps=8.33 w=8 l=0.5
X201 a_n2903_n3924.t34 plus.t13 a_n8300_8799.t15 gnd.t35 sky130_fd_pr__nfet_01v8 ad=1.155 pd=7.33 as=1.155 ps=7.33 w=7 l=0.5
X202 vdd.t235 a_n8300_8799.t90 CSoutput.t92 vdd.t234 sky130_fd_pr__pfet_01v8 ad=1.32 pd=8.33 as=1.32 ps=8.33 w=8 l=0.5
X203 vdd.t233 a_n8300_8799.t91 CSoutput.t85 vdd.t232 sky130_fd_pr__pfet_01v8 ad=1.32 pd=8.33 as=1.32 ps=8.33 w=8 l=0.5
X204 gnd.t245 commonsourceibias.t99 CSoutput.t143 gnd.t224 sky130_fd_pr__nfet_01v8 ad=1.155 pd=7.33 as=1.155 ps=7.33 w=7 l=1
X205 CSoutput.t142 commonsourceibias.t100 gnd.t244 gnd.t183 sky130_fd_pr__nfet_01v8 ad=1.155 pd=7.33 as=2.73 ps=14.78 w=7 l=1
X206 CSoutput.t21 a_n8300_8799.t92 vdd.t231 vdd.t196 sky130_fd_pr__pfet_01v8 ad=1.32 pd=8.33 as=1.32 ps=8.33 w=8 l=0.5
X207 a_n2903_n3924.t4 minus.t17 a_n2318_13878.t2 gnd.t7 sky130_fd_pr__nfet_01v8 ad=1.155 pd=7.33 as=1.155 ps=7.33 w=7 l=0.5
X208 a_n2140_13878.t5 a_n2318_13878.t38 a_n2318_13878.t39 vdd.t133 sky130_fd_pr__pfet_01v8 ad=1.485 pd=9.33 as=1.485 ps=9.33 w=9 l=0.5
X209 gnd.t243 commonsourceibias.t42 commonsourceibias.t43 gnd.t200 sky130_fd_pr__nfet_01v8 ad=1.155 pd=7.33 as=1.155 ps=7.33 w=7 l=1
X210 a_n2903_n3924.t33 plus.t14 a_n8300_8799.t30 gnd.t10 sky130_fd_pr__nfet_01v8 ad=1.155 pd=7.33 as=1.155 ps=7.33 w=7 l=0.5
X211 gnd.t240 commonsourceibias.t101 CSoutput.t139 gnd.t221 sky130_fd_pr__nfet_01v8 ad=1.155 pd=7.33 as=1.155 ps=7.33 w=7 l=1
X212 a_n2903_n3924.t20 minus.t18 a_n2318_13878.t46 gnd.t21 sky130_fd_pr__nfet_01v8 ad=2.73 pd=14.78 as=1.155 ps=7.33 w=7 l=0.5
X213 a_n8300_8799.t23 plus.t15 a_n2903_n3924.t32 gnd.t3 sky130_fd_pr__nfet_01v8 ad=1.155 pd=7.33 as=2.73 ps=14.78 w=7 l=0.5
X214 vdd.t230 a_n8300_8799.t93 CSoutput.t83 vdd.t177 sky130_fd_pr__pfet_01v8 ad=1.32 pd=8.33 as=1.32 ps=8.33 w=8 l=0.5
X215 gnd.t242 commonsourceibias.t102 CSoutput.t141 gnd.t238 sky130_fd_pr__nfet_01v8 ad=1.155 pd=7.33 as=1.155 ps=7.33 w=7 l=1
X216 a_n2318_8322.t16 a_n2318_13878.t67 a_n8300_8799.t31 vdd.t104 sky130_fd_pr__pfet_01v8 ad=1.485 pd=9.33 as=1.485 ps=9.33 w=9 l=0.5
X217 vdd.t109 CSoutput.t196 output.t11 gnd.t157 sky130_fd_pr__nfet_01v8 ad=0.825 pd=5.33 as=0.825 ps=5.33 w=5 l=1
X218 CSoutput.t182 a_n8300_8799.t94 vdd.t229 vdd.t179 sky130_fd_pr__pfet_01v8 ad=1.32 pd=8.33 as=1.32 ps=8.33 w=8 l=0.5
X219 diffpairibias.t7 diffpairibias.t6 gnd.t34 gnd.t33 sky130_fd_pr__nfet_01v8 ad=2.73 pd=14.78 as=2.73 ps=14.78 w=7 l=1
X220 CSoutput.t140 commonsourceibias.t103 gnd.t241 gnd.t218 sky130_fd_pr__nfet_01v8 ad=1.155 pd=7.33 as=1.155 ps=7.33 w=7 l=1
X221 vdd.t228 a_n8300_8799.t95 CSoutput.t52 vdd.t227 sky130_fd_pr__pfet_01v8 ad=1.32 pd=8.33 as=1.32 ps=8.33 w=8 l=0.5
X222 vdd.t56 vdd.t54 vdd.t55 vdd.t37 sky130_fd_pr__pfet_01v8 ad=3.12 pd=16.78 as=0 ps=0 w=8 l=0.5
X223 vdd.t101 a_n2318_13878.t68 a_n2318_8322.t3 vdd.t100 sky130_fd_pr__pfet_01v8 ad=1.485 pd=9.33 as=3.51 ps=18.78 w=9 l=0.5
X224 gnd.t239 commonsourceibias.t50 commonsourceibias.t51 gnd.t238 sky130_fd_pr__nfet_01v8 ad=1.155 pd=7.33 as=1.155 ps=7.33 w=7 l=1
X225 gnd.t102 gnd.t99 gnd.t101 gnd.t100 sky130_fd_pr__nfet_01v8 ad=1.95 pd=10.78 as=0 ps=0 w=5 l=1
X226 vdd.t226 a_n8300_8799.t96 CSoutput.t67 vdd.t182 sky130_fd_pr__pfet_01v8 ad=3.12 pd=16.78 as=1.32 ps=8.33 w=8 l=0.5
X227 vdd.t225 a_n8300_8799.t97 CSoutput.t32 vdd.t224 sky130_fd_pr__pfet_01v8 ad=1.32 pd=8.33 as=1.32 ps=8.33 w=8 l=0.5
X228 gnd.t98 gnd.t96 gnd.t97 gnd.t69 sky130_fd_pr__nfet_01v8 ad=2.73 pd=14.78 as=0 ps=0 w=7 l=1
X229 CSoutput.t155 commonsourceibias.t104 gnd.t237 gnd.t214 sky130_fd_pr__nfet_01v8 ad=1.155 pd=7.33 as=1.155 ps=7.33 w=7 l=1
X230 CSoutput.t154 commonsourceibias.t105 gnd.t236 gnd.t202 sky130_fd_pr__nfet_01v8 ad=1.155 pd=7.33 as=1.155 ps=7.33 w=7 l=1
X231 CSoutput.t68 a_n8300_8799.t98 vdd.t223 vdd.t206 sky130_fd_pr__pfet_01v8 ad=1.32 pd=8.33 as=1.32 ps=8.33 w=8 l=0.5
X232 a_n2140_13878.t19 a_n2318_13878.t69 vdd.t103 vdd.t102 sky130_fd_pr__pfet_01v8 ad=3.51 pd=18.78 as=1.485 ps=9.33 w=9 l=0.5
X233 vdd.t53 vdd.t50 vdd.t52 vdd.t51 sky130_fd_pr__pfet_01v8 ad=3.12 pd=16.78 as=0 ps=0 w=8 l=0.5
X234 vdd.t49 vdd.t47 vdd.t48 vdd.t37 sky130_fd_pr__pfet_01v8 ad=3.12 pd=16.78 as=0 ps=0 w=8 l=0.5
X235 plus.t1 gnd.t90 gnd.t92 gnd.t91 sky130_fd_pr__nfet_01v8 ad=0.165 pd=1.33 as=0.165 ps=1.33 w=1 l=0.5
X236 vdd.t222 a_n8300_8799.t99 CSoutput.t167 vdd.t200 sky130_fd_pr__pfet_01v8 ad=1.32 pd=8.33 as=1.32 ps=8.33 w=8 l=0.5
X237 CSoutput.t51 a_n8300_8799.t100 vdd.t221 vdd.t216 sky130_fd_pr__pfet_01v8 ad=1.32 pd=8.33 as=1.32 ps=8.33 w=8 l=0.5
X238 CSoutput.t38 a_n8300_8799.t101 vdd.t220 vdd.t196 sky130_fd_pr__pfet_01v8 ad=1.32 pd=8.33 as=1.32 ps=8.33 w=8 l=0.5
X239 CSoutput.t53 a_n8300_8799.t102 vdd.t219 vdd.t198 sky130_fd_pr__pfet_01v8 ad=1.32 pd=8.33 as=1.32 ps=8.33 w=8 l=0.5
X240 gnd.t235 commonsourceibias.t48 commonsourceibias.t49 gnd.t205 sky130_fd_pr__nfet_01v8 ad=1.155 pd=7.33 as=1.155 ps=7.33 w=7 l=1
X241 gnd.t95 gnd.t93 minus.t0 gnd.t94 sky130_fd_pr__nfet_01v8 ad=0.165 pd=1.33 as=0.165 ps=1.33 w=1 l=0.5
X242 gnd.t89 gnd.t86 gnd.t88 gnd.t87 sky130_fd_pr__nfet_01v8 ad=2.73 pd=14.78 as=0 ps=0 w=7 l=1
X243 vdd.t218 a_n8300_8799.t103 CSoutput.t54 vdd.t192 sky130_fd_pr__pfet_01v8 ad=3.12 pd=16.78 as=1.32 ps=8.33 w=8 l=0.5
X244 a_n2903_n3924.t14 diffpairibias.t21 gnd.t31 gnd.t30 sky130_fd_pr__nfet_01v8 ad=2.73 pd=14.78 as=2.73 ps=14.78 w=7 l=1
X245 gnd.t85 gnd.t82 gnd.t84 gnd.t83 sky130_fd_pr__nfet_01v8 ad=2.73 pd=14.78 as=0 ps=0 w=7 l=1
X246 CSoutput.t153 commonsourceibias.t106 gnd.t234 gnd.t210 sky130_fd_pr__nfet_01v8 ad=1.155 pd=7.33 as=1.155 ps=7.33 w=7 l=1
X247 vdd.t299 a_n2318_13878.t70 a_n2318_8322.t2 vdd.t298 sky130_fd_pr__pfet_01v8 ad=1.485 pd=9.33 as=1.485 ps=9.33 w=9 l=0.5
X248 a_n2318_8322.t15 a_n2318_13878.t71 a_n8300_8799.t34 vdd.t13 sky130_fd_pr__pfet_01v8 ad=1.485 pd=9.33 as=1.485 ps=9.33 w=9 l=0.5