* NGSPICE file created from diffpair.ext - technology: sky130A

.subckt diffpair minus drain_right drain_left source plus
X0 drain_left.t23 plus.t0 source.t41 a_n2874_n2088# sky130_fd_pr__nfet_01v8 ad=0.99 pd=6.33 as=0.99 ps=6.33 w=6 l=0.5
X1 source.t43 plus.t1 drain_left.t22 a_n2874_n2088# sky130_fd_pr__nfet_01v8 ad=0.99 pd=6.33 as=0.99 ps=6.33 w=6 l=0.5
X2 a_n2874_n2088# a_n2874_n2088# a_n2874_n2088# a_n2874_n2088# sky130_fd_pr__nfet_01v8 ad=2.34 pd=12.78 as=18.72 ps=102.24 w=6 l=0.5
X3 drain_right.t23 minus.t0 source.t19 a_n2874_n2088# sky130_fd_pr__nfet_01v8 ad=0.99 pd=6.33 as=0.99 ps=6.33 w=6 l=0.5
X4 source.t38 plus.t2 drain_left.t21 a_n2874_n2088# sky130_fd_pr__nfet_01v8 ad=0.99 pd=6.33 as=0.99 ps=6.33 w=6 l=0.5
X5 drain_left.t20 plus.t3 source.t39 a_n2874_n2088# sky130_fd_pr__nfet_01v8 ad=0.99 pd=6.33 as=2.34 ps=12.78 w=6 l=0.5
X6 source.t42 plus.t4 drain_left.t19 a_n2874_n2088# sky130_fd_pr__nfet_01v8 ad=0.99 pd=6.33 as=0.99 ps=6.33 w=6 l=0.5
X7 source.t4 minus.t1 drain_right.t22 a_n2874_n2088# sky130_fd_pr__nfet_01v8 ad=0.99 pd=6.33 as=0.99 ps=6.33 w=6 l=0.5
X8 drain_right.t21 minus.t2 source.t11 a_n2874_n2088# sky130_fd_pr__nfet_01v8 ad=0.99 pd=6.33 as=0.99 ps=6.33 w=6 l=0.5
X9 source.t3 minus.t3 drain_right.t20 a_n2874_n2088# sky130_fd_pr__nfet_01v8 ad=0.99 pd=6.33 as=0.99 ps=6.33 w=6 l=0.5
X10 source.t7 minus.t4 drain_right.t19 a_n2874_n2088# sky130_fd_pr__nfet_01v8 ad=0.99 pd=6.33 as=0.99 ps=6.33 w=6 l=0.5
X11 source.t22 plus.t5 drain_left.t18 a_n2874_n2088# sky130_fd_pr__nfet_01v8 ad=0.99 pd=6.33 as=0.99 ps=6.33 w=6 l=0.5
X12 source.t28 plus.t6 drain_left.t17 a_n2874_n2088# sky130_fd_pr__nfet_01v8 ad=2.34 pd=12.78 as=0.99 ps=6.33 w=6 l=0.5
X13 source.t5 minus.t5 drain_right.t18 a_n2874_n2088# sky130_fd_pr__nfet_01v8 ad=0.99 pd=6.33 as=0.99 ps=6.33 w=6 l=0.5
X14 source.t20 minus.t6 drain_right.t17 a_n2874_n2088# sky130_fd_pr__nfet_01v8 ad=0.99 pd=6.33 as=0.99 ps=6.33 w=6 l=0.5
X15 drain_right.t16 minus.t7 source.t13 a_n2874_n2088# sky130_fd_pr__nfet_01v8 ad=0.99 pd=6.33 as=0.99 ps=6.33 w=6 l=0.5
X16 drain_right.t15 minus.t8 source.t12 a_n2874_n2088# sky130_fd_pr__nfet_01v8 ad=0.99 pd=6.33 as=0.99 ps=6.33 w=6 l=0.5
X17 drain_right.t14 minus.t9 source.t46 a_n2874_n2088# sky130_fd_pr__nfet_01v8 ad=0.99 pd=6.33 as=0.99 ps=6.33 w=6 l=0.5
X18 a_n2874_n2088# a_n2874_n2088# a_n2874_n2088# a_n2874_n2088# sky130_fd_pr__nfet_01v8 ad=2.34 pd=12.78 as=0 ps=0 w=6 l=0.5
X19 drain_left.t16 plus.t7 source.t25 a_n2874_n2088# sky130_fd_pr__nfet_01v8 ad=0.99 pd=6.33 as=0.99 ps=6.33 w=6 l=0.5
X20 drain_right.t13 minus.t10 source.t47 a_n2874_n2088# sky130_fd_pr__nfet_01v8 ad=0.99 pd=6.33 as=0.99 ps=6.33 w=6 l=0.5
X21 source.t44 plus.t8 drain_left.t15 a_n2874_n2088# sky130_fd_pr__nfet_01v8 ad=2.34 pd=12.78 as=0.99 ps=6.33 w=6 l=0.5
X22 source.t34 plus.t9 drain_left.t14 a_n2874_n2088# sky130_fd_pr__nfet_01v8 ad=0.99 pd=6.33 as=0.99 ps=6.33 w=6 l=0.5
X23 source.t6 minus.t11 drain_right.t12 a_n2874_n2088# sky130_fd_pr__nfet_01v8 ad=0.99 pd=6.33 as=0.99 ps=6.33 w=6 l=0.5
X24 source.t0 minus.t12 drain_right.t11 a_n2874_n2088# sky130_fd_pr__nfet_01v8 ad=0.99 pd=6.33 as=0.99 ps=6.33 w=6 l=0.5
X25 drain_left.t13 plus.t10 source.t23 a_n2874_n2088# sky130_fd_pr__nfet_01v8 ad=0.99 pd=6.33 as=2.34 ps=12.78 w=6 l=0.5
X26 source.t29 plus.t11 drain_left.t12 a_n2874_n2088# sky130_fd_pr__nfet_01v8 ad=0.99 pd=6.33 as=0.99 ps=6.33 w=6 l=0.5
X27 source.t36 plus.t12 drain_left.t11 a_n2874_n2088# sky130_fd_pr__nfet_01v8 ad=0.99 pd=6.33 as=0.99 ps=6.33 w=6 l=0.5
X28 drain_left.t10 plus.t13 source.t24 a_n2874_n2088# sky130_fd_pr__nfet_01v8 ad=0.99 pd=6.33 as=0.99 ps=6.33 w=6 l=0.5
X29 drain_right.t10 minus.t13 source.t21 a_n2874_n2088# sky130_fd_pr__nfet_01v8 ad=0.99 pd=6.33 as=2.34 ps=12.78 w=6 l=0.5
X30 drain_right.t9 minus.t14 source.t15 a_n2874_n2088# sky130_fd_pr__nfet_01v8 ad=0.99 pd=6.33 as=0.99 ps=6.33 w=6 l=0.5
X31 a_n2874_n2088# a_n2874_n2088# a_n2874_n2088# a_n2874_n2088# sky130_fd_pr__nfet_01v8 ad=2.34 pd=12.78 as=0 ps=0 w=6 l=0.5
X32 source.t18 minus.t15 drain_right.t8 a_n2874_n2088# sky130_fd_pr__nfet_01v8 ad=0.99 pd=6.33 as=0.99 ps=6.33 w=6 l=0.5
X33 drain_right.t7 minus.t16 source.t9 a_n2874_n2088# sky130_fd_pr__nfet_01v8 ad=0.99 pd=6.33 as=2.34 ps=12.78 w=6 l=0.5
X34 source.t37 plus.t14 drain_left.t9 a_n2874_n2088# sky130_fd_pr__nfet_01v8 ad=0.99 pd=6.33 as=0.99 ps=6.33 w=6 l=0.5
X35 drain_left.t8 plus.t15 source.t30 a_n2874_n2088# sky130_fd_pr__nfet_01v8 ad=0.99 pd=6.33 as=0.99 ps=6.33 w=6 l=0.5
X36 drain_left.t7 plus.t16 source.t45 a_n2874_n2088# sky130_fd_pr__nfet_01v8 ad=0.99 pd=6.33 as=0.99 ps=6.33 w=6 l=0.5
X37 drain_right.t6 minus.t17 source.t14 a_n2874_n2088# sky130_fd_pr__nfet_01v8 ad=0.99 pd=6.33 as=0.99 ps=6.33 w=6 l=0.5
X38 drain_right.t5 minus.t18 source.t17 a_n2874_n2088# sky130_fd_pr__nfet_01v8 ad=0.99 pd=6.33 as=0.99 ps=6.33 w=6 l=0.5
X39 source.t8 minus.t19 drain_right.t4 a_n2874_n2088# sky130_fd_pr__nfet_01v8 ad=2.34 pd=12.78 as=0.99 ps=6.33 w=6 l=0.5
X40 source.t10 minus.t20 drain_right.t3 a_n2874_n2088# sky130_fd_pr__nfet_01v8 ad=0.99 pd=6.33 as=0.99 ps=6.33 w=6 l=0.5
X41 drain_left.t6 plus.t17 source.t26 a_n2874_n2088# sky130_fd_pr__nfet_01v8 ad=0.99 pd=6.33 as=0.99 ps=6.33 w=6 l=0.5
X42 source.t31 plus.t18 drain_left.t5 a_n2874_n2088# sky130_fd_pr__nfet_01v8 ad=0.99 pd=6.33 as=0.99 ps=6.33 w=6 l=0.5
X43 source.t1 minus.t21 drain_right.t2 a_n2874_n2088# sky130_fd_pr__nfet_01v8 ad=0.99 pd=6.33 as=0.99 ps=6.33 w=6 l=0.5
X44 drain_left.t4 plus.t19 source.t32 a_n2874_n2088# sky130_fd_pr__nfet_01v8 ad=0.99 pd=6.33 as=0.99 ps=6.33 w=6 l=0.5
X45 source.t2 minus.t22 drain_right.t1 a_n2874_n2088# sky130_fd_pr__nfet_01v8 ad=2.34 pd=12.78 as=0.99 ps=6.33 w=6 l=0.5
X46 drain_left.t3 plus.t20 source.t33 a_n2874_n2088# sky130_fd_pr__nfet_01v8 ad=0.99 pd=6.33 as=0.99 ps=6.33 w=6 l=0.5
X47 source.t27 plus.t21 drain_left.t2 a_n2874_n2088# sky130_fd_pr__nfet_01v8 ad=0.99 pd=6.33 as=0.99 ps=6.33 w=6 l=0.5
X48 drain_left.t1 plus.t22 source.t35 a_n2874_n2088# sky130_fd_pr__nfet_01v8 ad=0.99 pd=6.33 as=0.99 ps=6.33 w=6 l=0.5
X49 drain_left.t0 plus.t23 source.t40 a_n2874_n2088# sky130_fd_pr__nfet_01v8 ad=0.99 pd=6.33 as=0.99 ps=6.33 w=6 l=0.5
X50 drain_right.t0 minus.t23 source.t16 a_n2874_n2088# sky130_fd_pr__nfet_01v8 ad=0.99 pd=6.33 as=0.99 ps=6.33 w=6 l=0.5
X51 a_n2874_n2088# a_n2874_n2088# a_n2874_n2088# a_n2874_n2088# sky130_fd_pr__nfet_01v8 ad=2.34 pd=12.78 as=0 ps=0 w=6 l=0.5
R0 plus.n11 plus.t6 394.125
R1 plus.n45 plus.t10 394.125
R2 plus.n32 plus.t3 367.767
R3 plus.n30 plus.t4 367.767
R4 plus.n29 plus.t13 367.767
R5 plus.n3 plus.t5 367.767
R6 plus.n23 plus.t20 367.767
R7 plus.n22 plus.t9 367.767
R8 plus.n6 plus.t23 367.767
R9 plus.n17 plus.t18 367.767
R10 plus.n15 plus.t7 367.767
R11 plus.n9 plus.t21 367.767
R12 plus.n10 plus.t16 367.767
R13 plus.n66 plus.t8 367.767
R14 plus.n64 plus.t17 367.767
R15 plus.n63 plus.t1 367.767
R16 plus.n37 plus.t0 367.767
R17 plus.n57 plus.t12 367.767
R18 plus.n56 plus.t19 367.767
R19 plus.n40 plus.t2 367.767
R20 plus.n51 plus.t15 367.767
R21 plus.n49 plus.t14 367.767
R22 plus.n43 plus.t22 367.767
R23 plus.n44 plus.t11 367.767
R24 plus.n12 plus.n9 161.3
R25 plus.n14 plus.n13 161.3
R26 plus.n15 plus.n8 161.3
R27 plus.n16 plus.n7 161.3
R28 plus.n18 plus.n17 161.3
R29 plus.n19 plus.n6 161.3
R30 plus.n21 plus.n20 161.3
R31 plus.n22 plus.n5 161.3
R32 plus.n23 plus.n4 161.3
R33 plus.n25 plus.n24 161.3
R34 plus.n26 plus.n3 161.3
R35 plus.n28 plus.n27 161.3
R36 plus.n29 plus.n2 161.3
R37 plus.n30 plus.n1 161.3
R38 plus.n31 plus.n0 161.3
R39 plus.n33 plus.n32 161.3
R40 plus.n46 plus.n43 161.3
R41 plus.n48 plus.n47 161.3
R42 plus.n49 plus.n42 161.3
R43 plus.n50 plus.n41 161.3
R44 plus.n52 plus.n51 161.3
R45 plus.n53 plus.n40 161.3
R46 plus.n55 plus.n54 161.3
R47 plus.n56 plus.n39 161.3
R48 plus.n57 plus.n38 161.3
R49 plus.n59 plus.n58 161.3
R50 plus.n60 plus.n37 161.3
R51 plus.n62 plus.n61 161.3
R52 plus.n63 plus.n36 161.3
R53 plus.n64 plus.n35 161.3
R54 plus.n65 plus.n34 161.3
R55 plus.n67 plus.n66 161.3
R56 plus.n30 plus.n29 48.2005
R57 plus.n23 plus.n22 48.2005
R58 plus.n17 plus.n6 48.2005
R59 plus.n10 plus.n9 48.2005
R60 plus.n64 plus.n63 48.2005
R61 plus.n57 plus.n56 48.2005
R62 plus.n51 plus.n40 48.2005
R63 plus.n44 plus.n43 48.2005
R64 plus.n24 plus.n3 47.4702
R65 plus.n16 plus.n15 47.4702
R66 plus.n58 plus.n37 47.4702
R67 plus.n50 plus.n49 47.4702
R68 plus.n32 plus.n31 46.0096
R69 plus.n66 plus.n65 46.0096
R70 plus.n12 plus.n11 45.0871
R71 plus.n46 plus.n45 45.0871
R72 plus plus.n67 31.643
R73 plus.n28 plus.n3 25.5611
R74 plus.n15 plus.n14 25.5611
R75 plus.n62 plus.n37 25.5611
R76 plus.n49 plus.n48 25.5611
R77 plus.n21 plus.n6 24.1005
R78 plus.n22 plus.n21 24.1005
R79 plus.n56 plus.n55 24.1005
R80 plus.n55 plus.n40 24.1005
R81 plus.n29 plus.n28 22.6399
R82 plus.n14 plus.n9 22.6399
R83 plus.n63 plus.n62 22.6399
R84 plus.n48 plus.n43 22.6399
R85 plus.n11 plus.n10 14.1472
R86 plus.n45 plus.n44 14.1472
R87 plus plus.n33 9.89823
R88 plus.n31 plus.n30 2.19141
R89 plus.n65 plus.n64 2.19141
R90 plus.n24 plus.n23 0.730803
R91 plus.n17 plus.n16 0.730803
R92 plus.n58 plus.n57 0.730803
R93 plus.n51 plus.n50 0.730803
R94 plus.n13 plus.n12 0.189894
R95 plus.n13 plus.n8 0.189894
R96 plus.n8 plus.n7 0.189894
R97 plus.n18 plus.n7 0.189894
R98 plus.n19 plus.n18 0.189894
R99 plus.n20 plus.n19 0.189894
R100 plus.n20 plus.n5 0.189894
R101 plus.n5 plus.n4 0.189894
R102 plus.n25 plus.n4 0.189894
R103 plus.n26 plus.n25 0.189894
R104 plus.n27 plus.n26 0.189894
R105 plus.n27 plus.n2 0.189894
R106 plus.n2 plus.n1 0.189894
R107 plus.n1 plus.n0 0.189894
R108 plus.n33 plus.n0 0.189894
R109 plus.n67 plus.n34 0.189894
R110 plus.n35 plus.n34 0.189894
R111 plus.n36 plus.n35 0.189894
R112 plus.n61 plus.n36 0.189894
R113 plus.n61 plus.n60 0.189894
R114 plus.n60 plus.n59 0.189894
R115 plus.n59 plus.n38 0.189894
R116 plus.n39 plus.n38 0.189894
R117 plus.n54 plus.n39 0.189894
R118 plus.n54 plus.n53 0.189894
R119 plus.n53 plus.n52 0.189894
R120 plus.n52 plus.n41 0.189894
R121 plus.n42 plus.n41 0.189894
R122 plus.n47 plus.n42 0.189894
R123 plus.n47 plus.n46 0.189894
R124 source.n290 source.n264 289.615
R125 source.n248 source.n222 289.615
R126 source.n216 source.n190 289.615
R127 source.n174 source.n148 289.615
R128 source.n26 source.n0 289.615
R129 source.n68 source.n42 289.615
R130 source.n100 source.n74 289.615
R131 source.n142 source.n116 289.615
R132 source.n275 source.n274 185
R133 source.n272 source.n271 185
R134 source.n281 source.n280 185
R135 source.n283 source.n282 185
R136 source.n268 source.n267 185
R137 source.n289 source.n288 185
R138 source.n291 source.n290 185
R139 source.n233 source.n232 185
R140 source.n230 source.n229 185
R141 source.n239 source.n238 185
R142 source.n241 source.n240 185
R143 source.n226 source.n225 185
R144 source.n247 source.n246 185
R145 source.n249 source.n248 185
R146 source.n201 source.n200 185
R147 source.n198 source.n197 185
R148 source.n207 source.n206 185
R149 source.n209 source.n208 185
R150 source.n194 source.n193 185
R151 source.n215 source.n214 185
R152 source.n217 source.n216 185
R153 source.n159 source.n158 185
R154 source.n156 source.n155 185
R155 source.n165 source.n164 185
R156 source.n167 source.n166 185
R157 source.n152 source.n151 185
R158 source.n173 source.n172 185
R159 source.n175 source.n174 185
R160 source.n27 source.n26 185
R161 source.n25 source.n24 185
R162 source.n4 source.n3 185
R163 source.n19 source.n18 185
R164 source.n17 source.n16 185
R165 source.n8 source.n7 185
R166 source.n11 source.n10 185
R167 source.n69 source.n68 185
R168 source.n67 source.n66 185
R169 source.n46 source.n45 185
R170 source.n61 source.n60 185
R171 source.n59 source.n58 185
R172 source.n50 source.n49 185
R173 source.n53 source.n52 185
R174 source.n101 source.n100 185
R175 source.n99 source.n98 185
R176 source.n78 source.n77 185
R177 source.n93 source.n92 185
R178 source.n91 source.n90 185
R179 source.n82 source.n81 185
R180 source.n85 source.n84 185
R181 source.n143 source.n142 185
R182 source.n141 source.n140 185
R183 source.n120 source.n119 185
R184 source.n135 source.n134 185
R185 source.n133 source.n132 185
R186 source.n124 source.n123 185
R187 source.n127 source.n126 185
R188 source.t9 source.n273 147.661
R189 source.t8 source.n231 147.661
R190 source.t23 source.n199 147.661
R191 source.t44 source.n157 147.661
R192 source.t39 source.n9 147.661
R193 source.t28 source.n51 147.661
R194 source.t21 source.n83 147.661
R195 source.t2 source.n125 147.661
R196 source.n274 source.n271 104.615
R197 source.n281 source.n271 104.615
R198 source.n282 source.n281 104.615
R199 source.n282 source.n267 104.615
R200 source.n289 source.n267 104.615
R201 source.n290 source.n289 104.615
R202 source.n232 source.n229 104.615
R203 source.n239 source.n229 104.615
R204 source.n240 source.n239 104.615
R205 source.n240 source.n225 104.615
R206 source.n247 source.n225 104.615
R207 source.n248 source.n247 104.615
R208 source.n200 source.n197 104.615
R209 source.n207 source.n197 104.615
R210 source.n208 source.n207 104.615
R211 source.n208 source.n193 104.615
R212 source.n215 source.n193 104.615
R213 source.n216 source.n215 104.615
R214 source.n158 source.n155 104.615
R215 source.n165 source.n155 104.615
R216 source.n166 source.n165 104.615
R217 source.n166 source.n151 104.615
R218 source.n173 source.n151 104.615
R219 source.n174 source.n173 104.615
R220 source.n26 source.n25 104.615
R221 source.n25 source.n3 104.615
R222 source.n18 source.n3 104.615
R223 source.n18 source.n17 104.615
R224 source.n17 source.n7 104.615
R225 source.n10 source.n7 104.615
R226 source.n68 source.n67 104.615
R227 source.n67 source.n45 104.615
R228 source.n60 source.n45 104.615
R229 source.n60 source.n59 104.615
R230 source.n59 source.n49 104.615
R231 source.n52 source.n49 104.615
R232 source.n100 source.n99 104.615
R233 source.n99 source.n77 104.615
R234 source.n92 source.n77 104.615
R235 source.n92 source.n91 104.615
R236 source.n91 source.n81 104.615
R237 source.n84 source.n81 104.615
R238 source.n142 source.n141 104.615
R239 source.n141 source.n119 104.615
R240 source.n134 source.n119 104.615
R241 source.n134 source.n133 104.615
R242 source.n133 source.n123 104.615
R243 source.n126 source.n123 104.615
R244 source.n274 source.t9 52.3082
R245 source.n232 source.t8 52.3082
R246 source.n200 source.t23 52.3082
R247 source.n158 source.t44 52.3082
R248 source.n10 source.t39 52.3082
R249 source.n52 source.t28 52.3082
R250 source.n84 source.t21 52.3082
R251 source.n126 source.t2 52.3082
R252 source.n33 source.n32 50.512
R253 source.n35 source.n34 50.512
R254 source.n37 source.n36 50.512
R255 source.n39 source.n38 50.512
R256 source.n41 source.n40 50.512
R257 source.n107 source.n106 50.512
R258 source.n109 source.n108 50.512
R259 source.n111 source.n110 50.512
R260 source.n113 source.n112 50.512
R261 source.n115 source.n114 50.512
R262 source.n263 source.n262 50.5119
R263 source.n261 source.n260 50.5119
R264 source.n259 source.n258 50.5119
R265 source.n257 source.n256 50.5119
R266 source.n255 source.n254 50.5119
R267 source.n189 source.n188 50.5119
R268 source.n187 source.n186 50.5119
R269 source.n185 source.n184 50.5119
R270 source.n183 source.n182 50.5119
R271 source.n181 source.n180 50.5119
R272 source.n295 source.n294 32.1853
R273 source.n253 source.n252 32.1853
R274 source.n221 source.n220 32.1853
R275 source.n179 source.n178 32.1853
R276 source.n31 source.n30 32.1853
R277 source.n73 source.n72 32.1853
R278 source.n105 source.n104 32.1853
R279 source.n147 source.n146 32.1853
R280 source.n179 source.n147 17.4578
R281 source.n275 source.n273 15.6674
R282 source.n233 source.n231 15.6674
R283 source.n201 source.n199 15.6674
R284 source.n159 source.n157 15.6674
R285 source.n11 source.n9 15.6674
R286 source.n53 source.n51 15.6674
R287 source.n85 source.n83 15.6674
R288 source.n127 source.n125 15.6674
R289 source.n276 source.n272 12.8005
R290 source.n234 source.n230 12.8005
R291 source.n202 source.n198 12.8005
R292 source.n160 source.n156 12.8005
R293 source.n12 source.n8 12.8005
R294 source.n54 source.n50 12.8005
R295 source.n86 source.n82 12.8005
R296 source.n128 source.n124 12.8005
R297 source.n280 source.n279 12.0247
R298 source.n238 source.n237 12.0247
R299 source.n206 source.n205 12.0247
R300 source.n164 source.n163 12.0247
R301 source.n16 source.n15 12.0247
R302 source.n58 source.n57 12.0247
R303 source.n90 source.n89 12.0247
R304 source.n132 source.n131 12.0247
R305 source.n296 source.n31 11.8371
R306 source.n283 source.n270 11.249
R307 source.n241 source.n228 11.249
R308 source.n209 source.n196 11.249
R309 source.n167 source.n154 11.249
R310 source.n19 source.n6 11.249
R311 source.n61 source.n48 11.249
R312 source.n93 source.n80 11.249
R313 source.n135 source.n122 11.249
R314 source.n284 source.n268 10.4732
R315 source.n242 source.n226 10.4732
R316 source.n210 source.n194 10.4732
R317 source.n168 source.n152 10.4732
R318 source.n20 source.n4 10.4732
R319 source.n62 source.n46 10.4732
R320 source.n94 source.n78 10.4732
R321 source.n136 source.n120 10.4732
R322 source.n288 source.n287 9.69747
R323 source.n246 source.n245 9.69747
R324 source.n214 source.n213 9.69747
R325 source.n172 source.n171 9.69747
R326 source.n24 source.n23 9.69747
R327 source.n66 source.n65 9.69747
R328 source.n98 source.n97 9.69747
R329 source.n140 source.n139 9.69747
R330 source.n294 source.n293 9.45567
R331 source.n252 source.n251 9.45567
R332 source.n220 source.n219 9.45567
R333 source.n178 source.n177 9.45567
R334 source.n30 source.n29 9.45567
R335 source.n72 source.n71 9.45567
R336 source.n104 source.n103 9.45567
R337 source.n146 source.n145 9.45567
R338 source.n293 source.n292 9.3005
R339 source.n266 source.n265 9.3005
R340 source.n287 source.n286 9.3005
R341 source.n285 source.n284 9.3005
R342 source.n270 source.n269 9.3005
R343 source.n279 source.n278 9.3005
R344 source.n277 source.n276 9.3005
R345 source.n251 source.n250 9.3005
R346 source.n224 source.n223 9.3005
R347 source.n245 source.n244 9.3005
R348 source.n243 source.n242 9.3005
R349 source.n228 source.n227 9.3005
R350 source.n237 source.n236 9.3005
R351 source.n235 source.n234 9.3005
R352 source.n219 source.n218 9.3005
R353 source.n192 source.n191 9.3005
R354 source.n213 source.n212 9.3005
R355 source.n211 source.n210 9.3005
R356 source.n196 source.n195 9.3005
R357 source.n205 source.n204 9.3005
R358 source.n203 source.n202 9.3005
R359 source.n177 source.n176 9.3005
R360 source.n150 source.n149 9.3005
R361 source.n171 source.n170 9.3005
R362 source.n169 source.n168 9.3005
R363 source.n154 source.n153 9.3005
R364 source.n163 source.n162 9.3005
R365 source.n161 source.n160 9.3005
R366 source.n29 source.n28 9.3005
R367 source.n2 source.n1 9.3005
R368 source.n23 source.n22 9.3005
R369 source.n21 source.n20 9.3005
R370 source.n6 source.n5 9.3005
R371 source.n15 source.n14 9.3005
R372 source.n13 source.n12 9.3005
R373 source.n71 source.n70 9.3005
R374 source.n44 source.n43 9.3005
R375 source.n65 source.n64 9.3005
R376 source.n63 source.n62 9.3005
R377 source.n48 source.n47 9.3005
R378 source.n57 source.n56 9.3005
R379 source.n55 source.n54 9.3005
R380 source.n103 source.n102 9.3005
R381 source.n76 source.n75 9.3005
R382 source.n97 source.n96 9.3005
R383 source.n95 source.n94 9.3005
R384 source.n80 source.n79 9.3005
R385 source.n89 source.n88 9.3005
R386 source.n87 source.n86 9.3005
R387 source.n145 source.n144 9.3005
R388 source.n118 source.n117 9.3005
R389 source.n139 source.n138 9.3005
R390 source.n137 source.n136 9.3005
R391 source.n122 source.n121 9.3005
R392 source.n131 source.n130 9.3005
R393 source.n129 source.n128 9.3005
R394 source.n291 source.n266 8.92171
R395 source.n249 source.n224 8.92171
R396 source.n217 source.n192 8.92171
R397 source.n175 source.n150 8.92171
R398 source.n27 source.n2 8.92171
R399 source.n69 source.n44 8.92171
R400 source.n101 source.n76 8.92171
R401 source.n143 source.n118 8.92171
R402 source.n292 source.n264 8.14595
R403 source.n250 source.n222 8.14595
R404 source.n218 source.n190 8.14595
R405 source.n176 source.n148 8.14595
R406 source.n28 source.n0 8.14595
R407 source.n70 source.n42 8.14595
R408 source.n102 source.n74 8.14595
R409 source.n144 source.n116 8.14595
R410 source.n294 source.n264 5.81868
R411 source.n252 source.n222 5.81868
R412 source.n220 source.n190 5.81868
R413 source.n178 source.n148 5.81868
R414 source.n30 source.n0 5.81868
R415 source.n72 source.n42 5.81868
R416 source.n104 source.n74 5.81868
R417 source.n146 source.n116 5.81868
R418 source.n296 source.n295 5.62119
R419 source.n292 source.n291 5.04292
R420 source.n250 source.n249 5.04292
R421 source.n218 source.n217 5.04292
R422 source.n176 source.n175 5.04292
R423 source.n28 source.n27 5.04292
R424 source.n70 source.n69 5.04292
R425 source.n102 source.n101 5.04292
R426 source.n144 source.n143 5.04292
R427 source.n277 source.n273 4.38594
R428 source.n235 source.n231 4.38594
R429 source.n203 source.n199 4.38594
R430 source.n161 source.n157 4.38594
R431 source.n13 source.n9 4.38594
R432 source.n55 source.n51 4.38594
R433 source.n87 source.n83 4.38594
R434 source.n129 source.n125 4.38594
R435 source.n288 source.n266 4.26717
R436 source.n246 source.n224 4.26717
R437 source.n214 source.n192 4.26717
R438 source.n172 source.n150 4.26717
R439 source.n24 source.n2 4.26717
R440 source.n66 source.n44 4.26717
R441 source.n98 source.n76 4.26717
R442 source.n140 source.n118 4.26717
R443 source.n287 source.n268 3.49141
R444 source.n245 source.n226 3.49141
R445 source.n213 source.n194 3.49141
R446 source.n171 source.n152 3.49141
R447 source.n23 source.n4 3.49141
R448 source.n65 source.n46 3.49141
R449 source.n97 source.n78 3.49141
R450 source.n139 source.n120 3.49141
R451 source.n262 source.t47 3.3005
R452 source.n262 source.t4 3.3005
R453 source.n260 source.t16 3.3005
R454 source.n260 source.t18 3.3005
R455 source.n258 source.t13 3.3005
R456 source.n258 source.t20 3.3005
R457 source.n256 source.t11 3.3005
R458 source.n256 source.t1 3.3005
R459 source.n254 source.t17 3.3005
R460 source.n254 source.t3 3.3005
R461 source.n188 source.t35 3.3005
R462 source.n188 source.t29 3.3005
R463 source.n186 source.t30 3.3005
R464 source.n186 source.t37 3.3005
R465 source.n184 source.t32 3.3005
R466 source.n184 source.t38 3.3005
R467 source.n182 source.t41 3.3005
R468 source.n182 source.t36 3.3005
R469 source.n180 source.t26 3.3005
R470 source.n180 source.t43 3.3005
R471 source.n32 source.t24 3.3005
R472 source.n32 source.t42 3.3005
R473 source.n34 source.t33 3.3005
R474 source.n34 source.t22 3.3005
R475 source.n36 source.t40 3.3005
R476 source.n36 source.t34 3.3005
R477 source.n38 source.t25 3.3005
R478 source.n38 source.t31 3.3005
R479 source.n40 source.t45 3.3005
R480 source.n40 source.t27 3.3005
R481 source.n106 source.t46 3.3005
R482 source.n106 source.t7 3.3005
R483 source.n108 source.t12 3.3005
R484 source.n108 source.t10 3.3005
R485 source.n110 source.t19 3.3005
R486 source.n110 source.t6 3.3005
R487 source.n112 source.t14 3.3005
R488 source.n112 source.t0 3.3005
R489 source.n114 source.t15 3.3005
R490 source.n114 source.t5 3.3005
R491 source.n284 source.n283 2.71565
R492 source.n242 source.n241 2.71565
R493 source.n210 source.n209 2.71565
R494 source.n168 source.n167 2.71565
R495 source.n20 source.n19 2.71565
R496 source.n62 source.n61 2.71565
R497 source.n94 source.n93 2.71565
R498 source.n136 source.n135 2.71565
R499 source.n280 source.n270 1.93989
R500 source.n238 source.n228 1.93989
R501 source.n206 source.n196 1.93989
R502 source.n164 source.n154 1.93989
R503 source.n16 source.n6 1.93989
R504 source.n58 source.n48 1.93989
R505 source.n90 source.n80 1.93989
R506 source.n132 source.n122 1.93989
R507 source.n279 source.n272 1.16414
R508 source.n237 source.n230 1.16414
R509 source.n205 source.n198 1.16414
R510 source.n163 source.n156 1.16414
R511 source.n15 source.n8 1.16414
R512 source.n57 source.n50 1.16414
R513 source.n89 source.n82 1.16414
R514 source.n131 source.n124 1.16414
R515 source.n147 source.n115 0.716017
R516 source.n115 source.n113 0.716017
R517 source.n113 source.n111 0.716017
R518 source.n111 source.n109 0.716017
R519 source.n109 source.n107 0.716017
R520 source.n107 source.n105 0.716017
R521 source.n73 source.n41 0.716017
R522 source.n41 source.n39 0.716017
R523 source.n39 source.n37 0.716017
R524 source.n37 source.n35 0.716017
R525 source.n35 source.n33 0.716017
R526 source.n33 source.n31 0.716017
R527 source.n181 source.n179 0.716017
R528 source.n183 source.n181 0.716017
R529 source.n185 source.n183 0.716017
R530 source.n187 source.n185 0.716017
R531 source.n189 source.n187 0.716017
R532 source.n221 source.n189 0.716017
R533 source.n255 source.n253 0.716017
R534 source.n257 source.n255 0.716017
R535 source.n259 source.n257 0.716017
R536 source.n261 source.n259 0.716017
R537 source.n263 source.n261 0.716017
R538 source.n295 source.n263 0.716017
R539 source.n105 source.n73 0.470328
R540 source.n253 source.n221 0.470328
R541 source.n276 source.n275 0.388379
R542 source.n234 source.n233 0.388379
R543 source.n202 source.n201 0.388379
R544 source.n160 source.n159 0.388379
R545 source.n12 source.n11 0.388379
R546 source.n54 source.n53 0.388379
R547 source.n86 source.n85 0.388379
R548 source.n128 source.n127 0.388379
R549 source source.n296 0.188
R550 source.n278 source.n277 0.155672
R551 source.n278 source.n269 0.155672
R552 source.n285 source.n269 0.155672
R553 source.n286 source.n285 0.155672
R554 source.n286 source.n265 0.155672
R555 source.n293 source.n265 0.155672
R556 source.n236 source.n235 0.155672
R557 source.n236 source.n227 0.155672
R558 source.n243 source.n227 0.155672
R559 source.n244 source.n243 0.155672
R560 source.n244 source.n223 0.155672
R561 source.n251 source.n223 0.155672
R562 source.n204 source.n203 0.155672
R563 source.n204 source.n195 0.155672
R564 source.n211 source.n195 0.155672
R565 source.n212 source.n211 0.155672
R566 source.n212 source.n191 0.155672
R567 source.n219 source.n191 0.155672
R568 source.n162 source.n161 0.155672
R569 source.n162 source.n153 0.155672
R570 source.n169 source.n153 0.155672
R571 source.n170 source.n169 0.155672
R572 source.n170 source.n149 0.155672
R573 source.n177 source.n149 0.155672
R574 source.n29 source.n1 0.155672
R575 source.n22 source.n1 0.155672
R576 source.n22 source.n21 0.155672
R577 source.n21 source.n5 0.155672
R578 source.n14 source.n5 0.155672
R579 source.n14 source.n13 0.155672
R580 source.n71 source.n43 0.155672
R581 source.n64 source.n43 0.155672
R582 source.n64 source.n63 0.155672
R583 source.n63 source.n47 0.155672
R584 source.n56 source.n47 0.155672
R585 source.n56 source.n55 0.155672
R586 source.n103 source.n75 0.155672
R587 source.n96 source.n75 0.155672
R588 source.n96 source.n95 0.155672
R589 source.n95 source.n79 0.155672
R590 source.n88 source.n79 0.155672
R591 source.n88 source.n87 0.155672
R592 source.n145 source.n117 0.155672
R593 source.n138 source.n117 0.155672
R594 source.n138 source.n137 0.155672
R595 source.n137 source.n121 0.155672
R596 source.n130 source.n121 0.155672
R597 source.n130 source.n129 0.155672
R598 drain_left.n13 drain_left.n11 67.9063
R599 drain_left.n7 drain_left.n5 67.9062
R600 drain_left.n2 drain_left.n0 67.9062
R601 drain_left.n19 drain_left.n18 67.1908
R602 drain_left.n17 drain_left.n16 67.1908
R603 drain_left.n15 drain_left.n14 67.1908
R604 drain_left.n13 drain_left.n12 67.1908
R605 drain_left.n21 drain_left.n20 67.1907
R606 drain_left.n7 drain_left.n6 67.1907
R607 drain_left.n9 drain_left.n8 67.1907
R608 drain_left.n4 drain_left.n3 67.1907
R609 drain_left.n2 drain_left.n1 67.1907
R610 drain_left drain_left.n10 29.619
R611 drain_left drain_left.n21 6.36873
R612 drain_left.n5 drain_left.t12 3.3005
R613 drain_left.n5 drain_left.t13 3.3005
R614 drain_left.n6 drain_left.t9 3.3005
R615 drain_left.n6 drain_left.t1 3.3005
R616 drain_left.n8 drain_left.t21 3.3005
R617 drain_left.n8 drain_left.t8 3.3005
R618 drain_left.n3 drain_left.t11 3.3005
R619 drain_left.n3 drain_left.t4 3.3005
R620 drain_left.n1 drain_left.t22 3.3005
R621 drain_left.n1 drain_left.t23 3.3005
R622 drain_left.n0 drain_left.t15 3.3005
R623 drain_left.n0 drain_left.t6 3.3005
R624 drain_left.n20 drain_left.t19 3.3005
R625 drain_left.n20 drain_left.t20 3.3005
R626 drain_left.n18 drain_left.t18 3.3005
R627 drain_left.n18 drain_left.t10 3.3005
R628 drain_left.n16 drain_left.t14 3.3005
R629 drain_left.n16 drain_left.t3 3.3005
R630 drain_left.n14 drain_left.t5 3.3005
R631 drain_left.n14 drain_left.t0 3.3005
R632 drain_left.n12 drain_left.t2 3.3005
R633 drain_left.n12 drain_left.t16 3.3005
R634 drain_left.n11 drain_left.t17 3.3005
R635 drain_left.n11 drain_left.t7 3.3005
R636 drain_left.n9 drain_left.n7 0.716017
R637 drain_left.n4 drain_left.n2 0.716017
R638 drain_left.n15 drain_left.n13 0.716017
R639 drain_left.n17 drain_left.n15 0.716017
R640 drain_left.n19 drain_left.n17 0.716017
R641 drain_left.n21 drain_left.n19 0.716017
R642 drain_left.n10 drain_left.n9 0.302913
R643 drain_left.n10 drain_left.n4 0.302913
R644 minus.n9 minus.t13 394.125
R645 minus.n43 minus.t19 394.125
R646 minus.n8 minus.t4 367.767
R647 minus.n7 minus.t9 367.767
R648 minus.n13 minus.t20 367.767
R649 minus.n5 minus.t8 367.767
R650 minus.n18 minus.t11 367.767
R651 minus.n20 minus.t0 367.767
R652 minus.n3 minus.t12 367.767
R653 minus.n25 minus.t17 367.767
R654 minus.n1 minus.t5 367.767
R655 minus.n30 minus.t14 367.767
R656 minus.n32 minus.t22 367.767
R657 minus.n42 minus.t18 367.767
R658 minus.n41 minus.t3 367.767
R659 minus.n47 minus.t2 367.767
R660 minus.n39 minus.t21 367.767
R661 minus.n52 minus.t7 367.767
R662 minus.n54 minus.t6 367.767
R663 minus.n37 minus.t23 367.767
R664 minus.n59 minus.t15 367.767
R665 minus.n35 minus.t10 367.767
R666 minus.n64 minus.t1 367.767
R667 minus.n66 minus.t16 367.767
R668 minus.n33 minus.n32 161.3
R669 minus.n31 minus.n0 161.3
R670 minus.n30 minus.n29 161.3
R671 minus.n28 minus.n1 161.3
R672 minus.n27 minus.n26 161.3
R673 minus.n25 minus.n2 161.3
R674 minus.n24 minus.n23 161.3
R675 minus.n22 minus.n3 161.3
R676 minus.n21 minus.n20 161.3
R677 minus.n19 minus.n4 161.3
R678 minus.n18 minus.n17 161.3
R679 minus.n16 minus.n5 161.3