* NGSPICE file created from opamp252.ext - technology: sky130A

.subckt opamp252 gnd CSoutput output vdd plus minus commonsourceibias outputibias
+ diffpairibias
X0 gnd.t352 commonsourceibias.t26 commonsourceibias.t27 gnd.t273 sky130_fd_pr__nfet_01v8 ad=1.155 pd=7.33 as=1.155 ps=7.33 w=7 l=1
X1 a_n7636_8799.t28 plus.t5 a_n3827_n3924.t30 gnd.t22 sky130_fd_pr__nfet_01v8 ad=1.155 pd=7.33 as=1.155 ps=7.33 w=7 l=0.7
X2 CSoutput.t95 a_n7636_8799.t32 vdd.t131 vdd.t86 sky130_fd_pr__pfet_01v8 ad=1.32 pd=8.33 as=1.32 ps=8.33 w=8 l=0.5
X3 a_n2140_13878.t23 a_n2318_13878.t15 a_n2318_13878.t16 vdd.t243 sky130_fd_pr__pfet_01v8 ad=1.485 pd=9.33 as=1.485 ps=9.33 w=9 l=0.5
X4 a_n2140_13878.t7 a_n2318_13878.t48 vdd.t220 vdd.t219 sky130_fd_pr__pfet_01v8 ad=1.485 pd=9.33 as=1.485 ps=9.33 w=9 l=0.5
X5 CSoutput.t191 commonsourceibias.t64 gnd.t351 gnd.t241 sky130_fd_pr__nfet_01v8 ad=1.155 pd=7.33 as=2.73 ps=14.78 w=7 l=1
X6 vdd.t130 a_n7636_8799.t33 CSoutput.t94 vdd.t81 sky130_fd_pr__pfet_01v8 ad=1.32 pd=8.33 as=1.32 ps=8.33 w=8 l=0.5
X7 commonsourceibias.t25 commonsourceibias.t24 gnd.t350 gnd.t216 sky130_fd_pr__nfet_01v8 ad=1.155 pd=7.33 as=1.155 ps=7.33 w=7 l=1
X8 gnd.t349 commonsourceibias.t65 CSoutput.t190 gnd.t203 sky130_fd_pr__nfet_01v8 ad=1.155 pd=7.33 as=1.155 ps=7.33 w=7 l=1
X9 gnd.t348 commonsourceibias.t22 commonsourceibias.t23 gnd.t213 sky130_fd_pr__nfet_01v8 ad=1.155 pd=7.33 as=1.155 ps=7.33 w=7 l=1
X10 a_n3827_n3924.t16 diffpairibias.t20 gnd.t67 gnd.t66 sky130_fd_pr__nfet_01v8 ad=2.73 pd=14.78 as=2.73 ps=14.78 w=7 l=1
X11 CSoutput.t93 a_n7636_8799.t34 vdd.t129 vdd.t12 sky130_fd_pr__pfet_01v8 ad=1.32 pd=8.33 as=1.32 ps=8.33 w=8 l=0.5
X12 a_n3827_n3924.t26 plus.t6 a_n7636_8799.t27 gnd.t49 sky130_fd_pr__nfet_01v8 ad=1.155 pd=7.33 as=1.155 ps=7.33 w=7 l=0.7
X13 plus.t4 gnd.t187 gnd.t189 gnd.t188 sky130_fd_pr__nfet_01v8 ad=0.165 pd=1.33 as=0.165 ps=1.33 w=1 l=0.5
X14 gnd.t347 commonsourceibias.t20 commonsourceibias.t21 gnd.t193 sky130_fd_pr__nfet_01v8 ad=1.155 pd=7.33 as=1.155 ps=7.33 w=7 l=1
X15 vdd.t210 vdd.t208 vdd.t209 vdd.t169 sky130_fd_pr__pfet_01v8 ad=3.12 pd=16.78 as=0 ps=0 w=8 l=0.5
X16 a_n2318_8322.t19 a_n2318_13878.t49 a_n7636_8799.t0 vdd.t3 sky130_fd_pr__pfet_01v8 ad=1.485 pd=9.33 as=1.485 ps=9.33 w=9 l=0.5
X17 commonsourceibias.t19 commonsourceibias.t18 gnd.t346 gnd.t231 sky130_fd_pr__nfet_01v8 ad=1.155 pd=7.33 as=1.155 ps=7.33 w=7 l=1
X18 gnd.t345 commonsourceibias.t66 CSoutput.t189 gnd.t266 sky130_fd_pr__nfet_01v8 ad=1.155 pd=7.33 as=1.155 ps=7.33 w=7 l=1
X19 CSoutput.t92 a_n7636_8799.t35 vdd.t128 vdd.t51 sky130_fd_pr__pfet_01v8 ad=1.32 pd=8.33 as=1.32 ps=8.33 w=8 l=0.5
X20 vdd.t127 a_n7636_8799.t36 CSoutput.t91 vdd.t73 sky130_fd_pr__pfet_01v8 ad=1.32 pd=8.33 as=1.32 ps=8.33 w=8 l=0.5
X21 gnd.t192 gnd.t190 gnd.t191 gnd.t113 sky130_fd_pr__nfet_01v8 ad=2.73 pd=14.78 as=0 ps=0 w=7 l=1
X22 gnd.t186 gnd.t183 gnd.t185 gnd.t184 sky130_fd_pr__nfet_01v8 ad=2.34 pd=12.78 as=0 ps=0 w=6 l=2
X23 a_n7636_8799.t8 a_n2318_13878.t50 a_n2318_8322.t18 vdd.t248 sky130_fd_pr__pfet_01v8 ad=1.485 pd=9.33 as=3.51 ps=18.78 w=9 l=0.5
X24 vdd.t126 a_n7636_8799.t37 CSoutput.t90 vdd.t99 sky130_fd_pr__pfet_01v8 ad=1.32 pd=8.33 as=1.32 ps=8.33 w=8 l=0.5
X25 a_n2318_13878.t3 minus.t5 a_n3827_n3924.t5 gnd.t14 sky130_fd_pr__nfet_01v8 ad=1.155 pd=7.33 as=1.155 ps=7.33 w=7 l=0.7
X26 CSoutput.t89 a_n7636_8799.t38 vdd.t125 vdd.t53 sky130_fd_pr__pfet_01v8 ad=1.32 pd=8.33 as=1.32 ps=8.33 w=8 l=0.5
X27 vdd.t124 a_n7636_8799.t39 CSoutput.t88 vdd.t97 sky130_fd_pr__pfet_01v8 ad=1.32 pd=8.33 as=1.32 ps=8.33 w=8 l=0.5
X28 commonsourceibias.t13 commonsourceibias.t12 gnd.t344 gnd.t271 sky130_fd_pr__nfet_01v8 ad=1.155 pd=7.33 as=1.155 ps=7.33 w=7 l=1
X29 a_n7636_8799.t9 a_n2318_13878.t51 a_n2318_8322.t17 vdd.t244 sky130_fd_pr__pfet_01v8 ad=1.485 pd=9.33 as=3.51 ps=18.78 w=9 l=0.5
X30 gnd.t343 commonsourceibias.t67 CSoutput.t188 gnd.t207 sky130_fd_pr__nfet_01v8 ad=1.155 pd=7.33 as=1.155 ps=7.33 w=7 l=1
X31 CSoutput.t187 commonsourceibias.t68 gnd.t342 gnd.t221 sky130_fd_pr__nfet_01v8 ad=1.155 pd=7.33 as=1.155 ps=7.33 w=7 l=1
X32 a_n3827_n3924.t15 minus.t6 a_n2318_13878.t41 gnd.t65 sky130_fd_pr__nfet_01v8 ad=2.73 pd=14.78 as=1.155 ps=7.33 w=7 l=0.7
X33 gnd.t182 gnd.t180 minus.t4 gnd.t181 sky130_fd_pr__nfet_01v8 ad=0.165 pd=1.33 as=0.39 ps=2.78 w=1 l=0.5
X34 vdd.t207 vdd.t205 vdd.t206 vdd.t136 sky130_fd_pr__pfet_01v8 ad=3.51 pd=18.78 as=0 ps=0 w=9 l=0.5
X35 gnd.t341 commonsourceibias.t10 commonsourceibias.t11 gnd.t266 sky130_fd_pr__nfet_01v8 ad=1.155 pd=7.33 as=1.155 ps=7.33 w=7 l=1
X36 CSoutput.t192 a_n2318_8322.t3 sky130_fd_pr__cap_mim_m3_1 l=12 w=12
X37 CSoutput.t186 commonsourceibias.t69 gnd.t340 gnd.t276 sky130_fd_pr__nfet_01v8 ad=1.155 pd=7.33 as=1.155 ps=7.33 w=7 l=1
X38 CSoutput.t87 a_n7636_8799.t40 vdd.t123 vdd.t86 sky130_fd_pr__pfet_01v8 ad=1.32 pd=8.33 as=1.32 ps=8.33 w=8 l=0.5
X39 a_n3827_n3924.t6 diffpairibias.t21 gnd.t19 gnd.t18 sky130_fd_pr__nfet_01v8 ad=2.73 pd=14.78 as=2.73 ps=14.78 w=7 l=1
X40 CSoutput.t86 a_n7636_8799.t41 vdd.t122 vdd.t43 sky130_fd_pr__pfet_01v8 ad=1.32 pd=8.33 as=3.12 ps=16.78 w=8 l=0.5
X41 commonsourceibias.t9 commonsourceibias.t8 gnd.t339 gnd.t199 sky130_fd_pr__nfet_01v8 ad=1.155 pd=7.33 as=1.155 ps=7.33 w=7 l=1
X42 gnd.t179 gnd.t177 gnd.t178 gnd.t124 sky130_fd_pr__nfet_01v8 ad=2.73 pd=14.78 as=0 ps=0 w=7 l=0.7
X43 CSoutput.t185 commonsourceibias.t70 gnd.t337 gnd.t276 sky130_fd_pr__nfet_01v8 ad=1.155 pd=7.33 as=1.155 ps=7.33 w=7 l=1
X44 CSoutput.t85 a_n7636_8799.t42 vdd.t121 vdd.t12 sky130_fd_pr__pfet_01v8 ad=1.32 pd=8.33 as=1.32 ps=8.33 w=8 l=0.5
X45 a_n3827_n3924.t31 plus.t7 a_n7636_8799.t26 gnd.t60 sky130_fd_pr__nfet_01v8 ad=1.155 pd=7.33 as=1.155 ps=7.33 w=7 l=0.7
X46 gnd.t338 commonsourceibias.t6 commonsourceibias.t7 gnd.t256 sky130_fd_pr__nfet_01v8 ad=1.155 pd=7.33 as=1.155 ps=7.33 w=7 l=1
X47 CSoutput.t184 commonsourceibias.t71 gnd.t336 gnd.t209 sky130_fd_pr__nfet_01v8 ad=1.155 pd=7.33 as=2.73 ps=14.78 w=7 l=1
X48 a_n2140_13878.t22 a_n2318_13878.t37 a_n2318_13878.t38 vdd.t238 sky130_fd_pr__pfet_01v8 ad=1.485 pd=9.33 as=1.485 ps=9.33 w=9 l=0.5
X49 vdd.t204 vdd.t202 vdd.t203 vdd.t169 sky130_fd_pr__pfet_01v8 ad=3.12 pd=16.78 as=0 ps=0 w=8 l=0.5
X50 a_n2318_13878.t24 a_n2318_13878.t23 a_n2140_13878.t21 vdd.t2 sky130_fd_pr__pfet_01v8 ad=1.485 pd=9.33 as=1.485 ps=9.33 w=9 l=0.5
X51 output.t3 outputibias.t8 gnd.t53 gnd.t52 sky130_fd_pr__nfet_01v8 ad=2.34 pd=12.78 as=2.34 ps=12.78 w=6 l=2
X52 CSoutput.t193 a_n2318_8322.t1 sky130_fd_pr__cap_mim_m3_1 l=12 w=12
X53 a_n7636_8799.t25 plus.t8 a_n3827_n3924.t29 gnd.t38 sky130_fd_pr__nfet_01v8 ad=1.155 pd=7.33 as=1.155 ps=7.33 w=7 l=0.7
X54 CSoutput.t84 a_n7636_8799.t43 vdd.t120 vdd.t51 sky130_fd_pr__pfet_01v8 ad=1.32 pd=8.33 as=1.32 ps=8.33 w=8 l=0.5
X55 vdd.t201 vdd.t199 vdd.t200 vdd.t182 sky130_fd_pr__pfet_01v8 ad=3.51 pd=18.78 as=0 ps=0 w=9 l=0.5
X56 vdd.t119 a_n7636_8799.t44 CSoutput.t83 vdd.t73 sky130_fd_pr__pfet_01v8 ad=1.32 pd=8.33 as=1.32 ps=8.33 w=8 l=0.5
X57 vdd.t245 CSoutput.t194 output.t19 gnd.t68 sky130_fd_pr__nfet_01v8 ad=0.825 pd=5.33 as=0.825 ps=5.33 w=5 l=1
X58 diffpairibias.t19 diffpairibias.t18 gnd.t64 gnd.t63 sky130_fd_pr__nfet_01v8 ad=2.73 pd=14.78 as=2.73 ps=14.78 w=7 l=1
X59 CSoutput.t183 commonsourceibias.t72 gnd.t335 gnd.t239 sky130_fd_pr__nfet_01v8 ad=1.155 pd=7.33 as=1.155 ps=7.33 w=7 l=1
X60 a_n2318_13878.t8 minus.t7 a_n3827_n3924.t12 gnd.t48 sky130_fd_pr__nfet_01v8 ad=1.155 pd=7.33 as=1.155 ps=7.33 w=7 l=0.7
X61 CSoutput.t182 commonsourceibias.t73 gnd.t334 gnd.t286 sky130_fd_pr__nfet_01v8 ad=1.155 pd=7.33 as=1.155 ps=7.33 w=7 l=1
X62 CSoutput.t181 commonsourceibias.t74 gnd.t333 gnd.t260 sky130_fd_pr__nfet_01v8 ad=1.155 pd=7.33 as=1.155 ps=7.33 w=7 l=1
X63 a_n7636_8799.t3 a_n2318_13878.t52 a_n2318_8322.t16 vdd.t211 sky130_fd_pr__pfet_01v8 ad=1.485 pd=9.33 as=1.485 ps=9.33 w=9 l=0.5
X64 CSoutput.t82 a_n7636_8799.t45 vdd.t118 vdd.t83 sky130_fd_pr__pfet_01v8 ad=1.32 pd=8.33 as=1.32 ps=8.33 w=8 l=0.5
X65 commonsourceibias.t5 commonsourceibias.t4 gnd.t332 gnd.t241 sky130_fd_pr__nfet_01v8 ad=1.155 pd=7.33 as=2.73 ps=14.78 w=7 l=1
X66 gnd.t176 gnd.t174 gnd.t175 gnd.t77 sky130_fd_pr__nfet_01v8 ad=2.73 pd=14.78 as=0 ps=0 w=7 l=1
X67 vdd.t117 a_n7636_8799.t46 CSoutput.t81 vdd.t20 sky130_fd_pr__pfet_01v8 ad=1.32 pd=8.33 as=1.32 ps=8.33 w=8 l=0.5
X68 vdd.t116 a_n7636_8799.t47 CSoutput.t80 vdd.t97 sky130_fd_pr__pfet_01v8 ad=1.32 pd=8.33 as=1.32 ps=8.33 w=8 l=0.5
X69 diffpairibias.t17 diffpairibias.t16 gnd.t356 gnd.t355 sky130_fd_pr__nfet_01v8 ad=2.73 pd=14.78 as=2.73 ps=14.78 w=7 l=1
X70 CSoutput.t79 a_n7636_8799.t48 vdd.t115 vdd.t27 sky130_fd_pr__pfet_01v8 ad=1.32 pd=8.33 as=1.32 ps=8.33 w=8 l=0.5
X71 gnd.t173 gnd.t171 gnd.t172 gnd.t77 sky130_fd_pr__nfet_01v8 ad=2.73 pd=14.78 as=0 ps=0 w=7 l=1
X72 vdd.t114 a_n7636_8799.t49 CSoutput.t78 vdd.t8 sky130_fd_pr__pfet_01v8 ad=1.32 pd=8.33 as=1.32 ps=8.33 w=8 l=0.5
X73 CSoutput.t180 commonsourceibias.t75 gnd.t331 gnd.t260 sky130_fd_pr__nfet_01v8 ad=1.155 pd=7.33 as=1.155 ps=7.33 w=7 l=1
X74 CSoutput.t77 a_n7636_8799.t50 vdd.t113 vdd.t102 sky130_fd_pr__pfet_01v8 ad=1.32 pd=8.33 as=1.32 ps=8.33 w=8 l=0.5
X75 CSoutput.t76 a_n7636_8799.t51 vdd.t112 vdd.t43 sky130_fd_pr__pfet_01v8 ad=1.32 pd=8.33 as=3.12 ps=16.78 w=8 l=0.5
X76 CSoutput.t75 a_n7636_8799.t52 vdd.t111 vdd.t62 sky130_fd_pr__pfet_01v8 ad=1.32 pd=8.33 as=3.12 ps=16.78 w=8 l=0.5
X77 CSoutput.t74 a_n7636_8799.t53 vdd.t110 vdd.t102 sky130_fd_pr__pfet_01v8 ad=1.32 pd=8.33 as=1.32 ps=8.33 w=8 l=0.5
X78 gnd.t330 commonsourceibias.t76 CSoutput.t179 gnd.t235 sky130_fd_pr__nfet_01v8 ad=1.155 pd=7.33 as=1.155 ps=7.33 w=7 l=1
X79 gnd.t170 gnd.t167 gnd.t169 gnd.t168 sky130_fd_pr__nfet_01v8 ad=2.34 pd=12.78 as=0 ps=0 w=6 l=2
X80 CSoutput.t178 commonsourceibias.t77 gnd.t329 gnd.t254 sky130_fd_pr__nfet_01v8 ad=1.155 pd=7.33 as=1.155 ps=7.33 w=7 l=1
X81 gnd.t328 commonsourceibias.t78 CSoutput.t177 gnd.t218 sky130_fd_pr__nfet_01v8 ad=2.73 pd=14.78 as=1.155 ps=7.33 w=7 l=1
X82 a_n3827_n3924.t32 plus.t9 a_n7636_8799.t24 gnd.t5 sky130_fd_pr__nfet_01v8 ad=2.73 pd=14.78 as=1.155 ps=7.33 w=7 l=0.7
X83 gnd.t166 gnd.t164 minus.t3 gnd.t165 sky130_fd_pr__nfet_01v8 ad=0.165 pd=1.33 as=0.165 ps=1.33 w=1 l=0.5
X84 gnd.t163 gnd.t161 gnd.t162 gnd.t113 sky130_fd_pr__nfet_01v8 ad=2.73 pd=14.78 as=0 ps=0 w=7 l=1
X85 a_n3827_n3924.t0 diffpairibias.t22 gnd.t3 gnd.t2 sky130_fd_pr__nfet_01v8 ad=2.73 pd=14.78 as=2.73 ps=14.78 w=7 l=1
X86 vdd.t109 a_n7636_8799.t54 CSoutput.t73 vdd.t76 sky130_fd_pr__pfet_01v8 ad=1.32 pd=8.33 as=1.32 ps=8.33 w=8 l=0.5
X87 CSoutput.t176 commonsourceibias.t79 gnd.t327 gnd.t201 sky130_fd_pr__nfet_01v8 ad=1.155 pd=7.33 as=1.155 ps=7.33 w=7 l=1
X88 a_n2318_13878.t36 a_n2318_13878.t35 a_n2140_13878.t20 vdd.t3 sky130_fd_pr__pfet_01v8 ad=1.485 pd=9.33 as=1.485 ps=9.33 w=9 l=0.5
X89 vdd.t108 a_n7636_8799.t55 CSoutput.t72 vdd.t55 sky130_fd_pr__pfet_01v8 ad=1.32 pd=8.33 as=1.32 ps=8.33 w=8 l=0.5
X90 a_n7636_8799.t4 a_n2318_13878.t53 a_n2318_8322.t15 vdd.t212 sky130_fd_pr__pfet_01v8 ad=1.485 pd=9.33 as=1.485 ps=9.33 w=9 l=0.5
X91 vdd.t107 a_n7636_8799.t56 CSoutput.t71 vdd.t99 sky130_fd_pr__pfet_01v8 ad=1.32 pd=8.33 as=1.32 ps=8.33 w=8 l=0.5
X92 a_n2318_13878.t12 a_n2318_13878.t11 a_n2140_13878.t19 vdd.t263 sky130_fd_pr__pfet_01v8 ad=3.51 pd=18.78 as=1.485 ps=9.33 w=9 l=0.5
X93 outputibias.t7 outputibias.t6 gnd.t41 gnd.t40 sky130_fd_pr__nfet_01v8 ad=2.34 pd=12.78 as=2.34 ps=12.78 w=6 l=2
X94 commonsourceibias.t37 commonsourceibias.t36 gnd.t326 gnd.t221 sky130_fd_pr__nfet_01v8 ad=1.155 pd=7.33 as=1.155 ps=7.33 w=7 l=1
X95 gnd.t325 commonsourceibias.t80 CSoutput.t175 gnd.t233 sky130_fd_pr__nfet_01v8 ad=1.155 pd=7.33 as=1.155 ps=7.33 w=7 l=1
X96 gnd.t160 gnd.t158 gnd.t159 gnd.t81 sky130_fd_pr__nfet_01v8 ad=2.73 pd=14.78 as=0 ps=0 w=7 l=1
X97 CSoutput.t174 commonsourceibias.t81 gnd.t324 gnd.t216 sky130_fd_pr__nfet_01v8 ad=1.155 pd=7.33 as=1.155 ps=7.33 w=7 l=1
X98 gnd.t323 commonsourceibias.t34 commonsourceibias.t35 gnd.t197 sky130_fd_pr__nfet_01v8 ad=1.155 pd=7.33 as=1.155 ps=7.33 w=7 l=1
X99 vdd.t106 a_n7636_8799.t57 CSoutput.t70 vdd.t24 sky130_fd_pr__pfet_01v8 ad=1.32 pd=8.33 as=1.32 ps=8.33 w=8 l=0.5
X100 CSoutput.t173 commonsourceibias.t82 gnd.t322 gnd.t276 sky130_fd_pr__nfet_01v8 ad=1.155 pd=7.33 as=1.155 ps=7.33 w=7 l=1
X101 CSoutput.t69 a_n7636_8799.t58 vdd.t105 vdd.t60 sky130_fd_pr__pfet_01v8 ad=1.32 pd=8.33 as=1.32 ps=8.33 w=8 l=0.5
X102 diffpairibias.t15 diffpairibias.t14 gnd.t30 gnd.t29 sky130_fd_pr__nfet_01v8 ad=2.73 pd=14.78 as=2.73 ps=14.78 w=7 l=1
X103 a_n2318_13878.t0 minus.t8 a_n3827_n3924.t1 gnd.t4 sky130_fd_pr__nfet_01v8 ad=1.155 pd=7.33 as=1.155 ps=7.33 w=7 l=0.7
X104 vdd.t198 vdd.t196 vdd.t197 vdd.t186 sky130_fd_pr__pfet_01v8 ad=3.51 pd=18.78 as=0 ps=0 w=9 l=0.5
X105 vdd.t195 vdd.t193 vdd.t194 vdd.t148 sky130_fd_pr__pfet_01v8 ad=3.12 pd=16.78 as=0 ps=0 w=8 l=0.5
X106 CSoutput.t68 a_n7636_8799.t59 vdd.t104 vdd.t27 sky130_fd_pr__pfet_01v8 ad=1.32 pd=8.33 as=1.32 ps=8.33 w=8 l=0.5
X107 vdd.t192 vdd.t189 vdd.t191 vdd.t190 sky130_fd_pr__pfet_01v8 ad=3.51 pd=18.78 as=0 ps=0 w=9 l=0.5
X108 gnd.t321 commonsourceibias.t83 CSoutput.t172 gnd.t225 sky130_fd_pr__nfet_01v8 ad=2.73 pd=14.78 as=1.155 ps=7.33 w=7 l=1
X109 gnd.t157 gnd.t155 gnd.t156 gnd.t99 sky130_fd_pr__nfet_01v8 ad=2.73 pd=14.78 as=0 ps=0 w=7 l=0.7
X110 a_n3827_n3924.t4 minus.t9 a_n2318_13878.t2 gnd.t13 sky130_fd_pr__nfet_01v8 ad=1.155 pd=7.33 as=1.155 ps=7.33 w=7 l=0.7
X111 vdd.t235 a_n2318_13878.t54 a_n2318_8322.t27 vdd.t234 sky130_fd_pr__pfet_01v8 ad=1.485 pd=9.33 as=1.485 ps=9.33 w=9 l=0.5
X112 gnd.t320 commonsourceibias.t32 commonsourceibias.t33 gnd.t211 sky130_fd_pr__nfet_01v8 ad=1.155 pd=7.33 as=1.155 ps=7.33 w=7 l=1
X113 a_n2318_13878.t34 a_n2318_13878.t33 a_n2140_13878.t18 vdd.t223 sky130_fd_pr__pfet_01v8 ad=3.51 pd=18.78 as=1.485 ps=9.33 w=9 l=0.5
X114 CSoutput.t171 commonsourceibias.t84 gnd.t319 gnd.t227 sky130_fd_pr__nfet_01v8 ad=1.155 pd=7.33 as=1.155 ps=7.33 w=7 l=1
X115 output.t18 CSoutput.t195 vdd.t246 gnd.t69 sky130_fd_pr__nfet_01v8 ad=0.825 pd=5.33 as=0.825 ps=5.33 w=5 l=1
X116 CSoutput.t170 commonsourceibias.t85 gnd.t318 gnd.t271 sky130_fd_pr__nfet_01v8 ad=1.155 pd=7.33 as=1.155 ps=7.33 w=7 l=1
X117 a_n2318_8322.t26 a_n2318_13878.t55 vdd.t237 vdd.t236 sky130_fd_pr__pfet_01v8 ad=1.485 pd=9.33 as=1.485 ps=9.33 w=9 l=0.5
X118 a_n3827_n3924.t7 diffpairibias.t23 gnd.t21 gnd.t20 sky130_fd_pr__nfet_01v8 ad=2.73 pd=14.78 as=2.73 ps=14.78 w=7 l=1
X119 CSoutput.t67 a_n7636_8799.t60 vdd.t103 vdd.t102 sky130_fd_pr__pfet_01v8 ad=1.32 pd=8.33 as=1.32 ps=8.33 w=8 l=0.5
X120 CSoutput.t66 a_n7636_8799.t61 vdd.t101 vdd.t62 sky130_fd_pr__pfet_01v8 ad=1.32 pd=8.33 as=3.12 ps=16.78 w=8 l=0.5
X121 gnd.t317 commonsourceibias.t86 CSoutput.t169 gnd.t273 sky130_fd_pr__nfet_01v8 ad=1.155 pd=7.33 as=1.155 ps=7.33 w=7 l=1
X122 a_n3827_n3924.t11 minus.t10 a_n2318_13878.t7 gnd.t42 sky130_fd_pr__nfet_01v8 ad=1.155 pd=7.33 as=1.155 ps=7.33 w=7 l=0.7
X123 gnd.t154 gnd.t152 plus.t3 gnd.t153 sky130_fd_pr__nfet_01v8 ad=0.165 pd=1.33 as=0.39 ps=2.78 w=1 l=0.5
X124 commonsourceibias.t31 commonsourceibias.t30 gnd.t316 gnd.t209 sky130_fd_pr__nfet_01v8 ad=1.155 pd=7.33 as=2.73 ps=14.78 w=7 l=1
X125 vdd.t228 a_n2318_13878.t56 a_n2140_13878.t6 vdd.t227 sky130_fd_pr__pfet_01v8 ad=1.485 pd=9.33 as=1.485 ps=9.33 w=9 l=0.5
X126 gnd.t315 commonsourceibias.t87 CSoutput.t168 gnd.t246 sky130_fd_pr__nfet_01v8 ad=1.155 pd=7.33 as=1.155 ps=7.33 w=7 l=1
X127 a_n3827_n3924.t24 plus.t10 a_n7636_8799.t23 gnd.t24 sky130_fd_pr__nfet_01v8 ad=1.155 pd=7.33 as=1.155 ps=7.33 w=7 l=0.7
X128 vdd.t188 vdd.t185 vdd.t187 vdd.t186 sky130_fd_pr__pfet_01v8 ad=3.51 pd=18.78 as=0 ps=0 w=9 l=0.5
X129 gnd.t314 commonsourceibias.t28 commonsourceibias.t29 gnd.t207 sky130_fd_pr__nfet_01v8 ad=1.155 pd=7.33 as=1.155 ps=7.33 w=7 l=1
X130 output.t17 CSoutput.t196 vdd.t247 gnd.t70 sky130_fd_pr__nfet_01v8 ad=0.825 pd=5.33 as=0.825 ps=5.33 w=5 l=1
X131 CSoutput.t167 commonsourceibias.t88 gnd.t313 gnd.t239 sky130_fd_pr__nfet_01v8 ad=1.155 pd=7.33 as=1.155 ps=7.33 w=7 l=1
X132 gnd.t312 commonsourceibias.t89 CSoutput.t166 gnd.t203 sky130_fd_pr__nfet_01v8 ad=1.155 pd=7.33 as=1.155 ps=7.33 w=7 l=1
X133 vdd.t100 a_n7636_8799.t62 CSoutput.t65 vdd.t99 sky130_fd_pr__pfet_01v8 ad=1.32 pd=8.33 as=1.32 ps=8.33 w=8 l=0.5
X134 CSoutput.t165 commonsourceibias.t90 gnd.t311 gnd.t254 sky130_fd_pr__nfet_01v8 ad=1.155 pd=7.33 as=1.155 ps=7.33 w=7 l=1
X135 a_n7636_8799.t22 plus.t11 a_n3827_n3924.t27 gnd.t15 sky130_fd_pr__nfet_01v8 ad=1.155 pd=7.33 as=2.73 ps=14.78 w=7 l=0.7
X136 a_n7636_8799.t21 plus.t12 a_n3827_n3924.t28 gnd.t47 sky130_fd_pr__nfet_01v8 ad=1.155 pd=7.33 as=2.73 ps=14.78 w=7 l=0.7
X137 commonsourceibias.t3 commonsourceibias.t2 gnd.t310 gnd.t195 sky130_fd_pr__nfet_01v8 ad=1.155 pd=7.33 as=1.155 ps=7.33 w=7 l=1
X138 vdd.t184 vdd.t181 vdd.t183 vdd.t182 sky130_fd_pr__pfet_01v8 ad=3.51 pd=18.78 as=0 ps=0 w=9 l=0.5
X139 a_n2318_8322.t25 a_n2318_13878.t57 vdd.t230 vdd.t229 sky130_fd_pr__pfet_01v8 ad=3.51 pd=18.78 as=1.485 ps=9.33 w=9 l=0.5
X140 gnd.t309 commonsourceibias.t91 CSoutput.t164 gnd.t223 sky130_fd_pr__nfet_01v8 ad=1.155 pd=7.33 as=1.155 ps=7.33 w=7 l=1
X141 a_n7636_8799.t11 a_n2318_13878.t58 a_n2318_8322.t14 vdd.t255 sky130_fd_pr__pfet_01v8 ad=1.485 pd=9.33 as=1.485 ps=9.33 w=9 l=0.5
X142 gnd.t151 gnd.t149 gnd.t150 gnd.t95 sky130_fd_pr__nfet_01v8 ad=2.73 pd=14.78 as=0 ps=0 w=7 l=1
X143 CSoutput.t64 a_n7636_8799.t63 vdd.t95 vdd.t38 sky130_fd_pr__pfet_01v8 ad=1.32 pd=8.33 as=1.32 ps=8.33 w=8 l=0.5
X144 diffpairibias.t13 diffpairibias.t12 gnd.t367 gnd.t366 sky130_fd_pr__nfet_01v8 ad=2.73 pd=14.78 as=2.73 ps=14.78 w=7 l=1
X145 vdd.t98 a_n7636_8799.t64 CSoutput.t63 vdd.t97 sky130_fd_pr__pfet_01v8 ad=1.32 pd=8.33 as=1.32 ps=8.33 w=8 l=0.5
X146 a_n2318_13878.t6 minus.t11 a_n3827_n3924.t10 gnd.t23 sky130_fd_pr__nfet_01v8 ad=1.155 pd=7.33 as=1.155 ps=7.33 w=7 l=0.7
X147 a_n2318_13878.t14 a_n2318_13878.t13 a_n2140_13878.t17 vdd.t215 sky130_fd_pr__pfet_01v8 ad=1.485 pd=9.33 as=1.485 ps=9.33 w=9 l=0.5
X148 vdd.t96 a_n7636_8799.t65 CSoutput.t62 vdd.t24 sky130_fd_pr__pfet_01v8 ad=1.32 pd=8.33 as=1.32 ps=8.33 w=8 l=0.5
X149 a_n7636_8799.t12 a_n2318_13878.t59 a_n2318_8322.t13 vdd.t243 sky130_fd_pr__pfet_01v8 ad=1.485 pd=9.33 as=1.485 ps=9.33 w=9 l=0.5
X150 CSoutput.t61 a_n7636_8799.t66 vdd.t94 vdd.t60 sky130_fd_pr__pfet_01v8 ad=1.32 pd=8.33 as=1.32 ps=8.33 w=8 l=0.5
X151 gnd.t308 commonsourceibias.t0 commonsourceibias.t1 gnd.t203 sky130_fd_pr__nfet_01v8 ad=1.155 pd=7.33 as=1.155 ps=7.33 w=7 l=1
X152 a_n2140_13878.t16 a_n2318_13878.t31 a_n2318_13878.t32 vdd.t212 sky130_fd_pr__pfet_01v8 ad=1.485 pd=9.33 as=1.485 ps=9.33 w=9 l=0.5
X153 vdd.t180 vdd.t178 vdd.t179 vdd.t148 sky130_fd_pr__pfet_01v8 ad=3.12 pd=16.78 as=0 ps=0 w=8 l=0.5
X154 a_n3827_n3924.t17 minus.t12 a_n2318_13878.t42 gnd.t39 sky130_fd_pr__nfet_01v8 ad=1.155 pd=7.33 as=1.155 ps=7.33 w=7 l=0.7
X155 gnd.t307 commonsourceibias.t92 CSoutput.t163 gnd.t229 sky130_fd_pr__nfet_01v8 ad=1.155 pd=7.33 as=1.155 ps=7.33 w=7 l=1
X156 minus.t2 gnd.t146 gnd.t148 gnd.t147 sky130_fd_pr__nfet_01v8 ad=0.165 pd=1.33 as=0.165 ps=1.33 w=1 l=0.5
X157 output.t16 CSoutput.t197 vdd.t216 gnd.t33 sky130_fd_pr__nfet_01v8 ad=0.825 pd=5.33 as=0.825 ps=5.33 w=5 l=1
X158 gnd.t306 commonsourceibias.t93 CSoutput.t162 gnd.t211 sky130_fd_pr__nfet_01v8 ad=1.155 pd=7.33 as=1.155 ps=7.33 w=7 l=1
X159 CSoutput.t60 a_n7636_8799.t67 vdd.t93 vdd.t83 sky130_fd_pr__pfet_01v8 ad=1.32 pd=8.33 as=1.32 ps=8.33 w=8 l=0.5
X160 vdd.t252 a_n2318_13878.t60 a_n2318_8322.t24 vdd.t251 sky130_fd_pr__pfet_01v8 ad=1.485 pd=9.33 as=3.51 ps=18.78 w=9 l=0.5
X161 a_n2140_13878.t15 a_n2318_13878.t19 a_n2318_13878.t20 vdd.t248 sky130_fd_pr__pfet_01v8 ad=1.485 pd=9.33 as=3.51 ps=18.78 w=9 l=0.5
X162 gnd.t145 gnd.t143 gnd.t144 gnd.t95 sky130_fd_pr__nfet_01v8 ad=2.73 pd=14.78 as=0 ps=0 w=7 l=1
X163 vdd.t92 a_n7636_8799.t68 CSoutput.t59 vdd.t81 sky130_fd_pr__pfet_01v8 ad=1.32 pd=8.33 as=1.32 ps=8.33 w=8 l=0.5
X164 output.t2 outputibias.t9 gnd.t26 gnd.t25 sky130_fd_pr__nfet_01v8 ad=2.34 pd=12.78 as=2.34 ps=12.78 w=6 l=2
X165 a_n2318_13878.t30 a_n2318_13878.t29 a_n2140_13878.t14 vdd.t221 sky130_fd_pr__pfet_01v8 ad=1.485 pd=9.33 as=1.485 ps=9.33 w=9 l=0.5
X166 gnd.t142 gnd.t139 gnd.t141 gnd.t140 sky130_fd_pr__nfet_01v8 ad=1.95 pd=10.78 as=0 ps=0 w=5 l=1
X167 gnd.t138 gnd.t136 gnd.t137 gnd.t113 sky130_fd_pr__nfet_01v8 ad=2.73 pd=14.78 as=0 ps=0 w=7 l=1
X168 outputibias.t5 outputibias.t4 gnd.t12 gnd.t11 sky130_fd_pr__nfet_01v8 ad=2.34 pd=12.78 as=2.34 ps=12.78 w=6 l=2
X169 vdd.t217 CSoutput.t198 output.t15 gnd.t34 sky130_fd_pr__nfet_01v8 ad=0.825 pd=5.33 as=0.825 ps=5.33 w=5 l=1
X170 CSoutput.t161 commonsourceibias.t94 gnd.t305 gnd.t201 sky130_fd_pr__nfet_01v8 ad=1.155 pd=7.33 as=1.155 ps=7.33 w=7 l=1
X171 gnd.t304 commonsourceibias.t95 CSoutput.t160 gnd.t235 sky130_fd_pr__nfet_01v8 ad=1.155 pd=7.33 as=1.155 ps=7.33 w=7 l=1
X172 gnd.t303 commonsourceibias.t96 CSoutput.t159 gnd.t233 sky130_fd_pr__nfet_01v8 ad=1.155 pd=7.33 as=1.155 ps=7.33 w=7 l=1
X173 vdd.t91 a_n7636_8799.t69 CSoutput.t58 vdd.t40 sky130_fd_pr__pfet_01v8 ad=1.32 pd=8.33 as=1.32 ps=8.33 w=8 l=0.5
X174 a_n3827_n3924.t2 diffpairibias.t24 gnd.t10 gnd.t9 sky130_fd_pr__nfet_01v8 ad=2.73 pd=14.78 as=2.73 ps=14.78 w=7 l=1
X175 a_n3827_n3924.t19 diffpairibias.t25 gnd.t358 gnd.t357 sky130_fd_pr__nfet_01v8 ad=2.73 pd=14.78 as=2.73 ps=14.78 w=7 l=1
X176 outputibias.t3 outputibias.t2 gnd.t72 gnd.t71 sky130_fd_pr__nfet_01v8 ad=2.34 pd=12.78 as=2.34 ps=12.78 w=6 l=2
X177 vdd.t90 a_n7636_8799.t70 CSoutput.t57 vdd.t76 sky130_fd_pr__pfet_01v8 ad=1.32 pd=8.33 as=1.32 ps=8.33 w=8 l=0.5
X178 vdd.t88 a_n7636_8799.t71 CSoutput.t56 vdd.t45 sky130_fd_pr__pfet_01v8 ad=3.12 pd=16.78 as=1.32 ps=8.33 w=8 l=0.5
X179 gnd.t135 gnd.t133 gnd.t134 gnd.t81 sky130_fd_pr__nfet_01v8 ad=2.73 pd=14.78 as=0 ps=0 w=7 l=1
X180 gnd.t132 gnd.t130 gnd.t131 gnd.t81 sky130_fd_pr__nfet_01v8 ad=2.73 pd=14.78 as=0 ps=0 w=7 l=1
X181 CSoutput.t55 a_n7636_8799.t72 vdd.t89 vdd.t6 sky130_fd_pr__pfet_01v8 ad=1.32 pd=8.33 as=1.32 ps=8.33 w=8 l=0.5
X182 CSoutput.t54 a_n7636_8799.t73 vdd.t87 vdd.t86 sky130_fd_pr__pfet_01v8 ad=1.32 pd=8.33 as=1.32 ps=8.33 w=8 l=0.5
X183 vdd.t218 CSoutput.t199 output.t14 gnd.t35 sky130_fd_pr__nfet_01v8 ad=0.825 pd=5.33 as=0.825 ps=5.33 w=5 l=1
X184 CSoutput.t53 a_n7636_8799.t74 vdd.t85 vdd.t69 sky130_fd_pr__pfet_01v8 ad=1.32 pd=8.33 as=1.32 ps=8.33 w=8 l=0.5
X185 CSoutput.t158 commonsourceibias.t97 gnd.t302 gnd.t286 sky130_fd_pr__nfet_01v8 ad=1.155 pd=7.33 as=1.155 ps=7.33 w=7 l=1
X186 output.t13 CSoutput.t200 vdd.t213 gnd.t27 sky130_fd_pr__nfet_01v8 ad=0.825 pd=5.33 as=0.825 ps=5.33 w=5 l=1
X187 gnd.t129 gnd.t127 gnd.t128 gnd.t77 sky130_fd_pr__nfet_01v8 ad=2.73 pd=14.78 as=0 ps=0 w=7 l=1
X188 gnd.t301 commonsourceibias.t98 CSoutput.t157 gnd.t246 sky130_fd_pr__nfet_01v8 ad=1.155 pd=7.33 as=1.155 ps=7.33 w=7 l=1
X189 diffpairibias.t11 diffpairibias.t10 gnd.t354 gnd.t353 sky130_fd_pr__nfet_01v8 ad=2.73 pd=14.78 as=2.73 ps=14.78 w=7 l=1
X190 a_n2140_13878.t5 a_n2318_13878.t61 vdd.t254 vdd.t253 sky130_fd_pr__pfet_01v8 ad=1.485 pd=9.33 as=1.485 ps=9.33 w=9 l=0.5
X191 vdd.t250 a_n2318_13878.t62 a_n2140_13878.t4 vdd.t249 sky130_fd_pr__pfet_01v8 ad=1.485 pd=9.33 as=1.485 ps=9.33 w=9 l=0.5
X192 vdd.t177 vdd.t175 vdd.t176 vdd.t165 sky130_fd_pr__pfet_01v8 ad=3.12 pd=16.78 as=0 ps=0 w=8 l=0.5
X193 CSoutput.t52 a_n7636_8799.t75 vdd.t84 vdd.t83 sky130_fd_pr__pfet_01v8 ad=1.32 pd=8.33 as=1.32 ps=8.33 w=8 l=0.5
X194 gnd.t300 commonsourceibias.t99 CSoutput.t156 gnd.t266 sky130_fd_pr__nfet_01v8 ad=1.155 pd=7.33 as=1.155 ps=7.33 w=7 l=1
X195 CSoutput.t155 commonsourceibias.t100 gnd.t299 gnd.t209 sky130_fd_pr__nfet_01v8 ad=1.155 pd=7.33 as=2.73 ps=14.78 w=7 l=1
X196 vdd.t82 a_n7636_8799.t76 CSoutput.t51 vdd.t81 sky130_fd_pr__pfet_01v8 ad=1.32 pd=8.33 as=1.32 ps=8.33 w=8 l=0.5
X197 gnd.t126 gnd.t123 gnd.t125 gnd.t124 sky130_fd_pr__nfet_01v8 ad=2.73 pd=14.78 as=0 ps=0 w=7 l=0.7
X198 gnd.t122 gnd.t120 plus.t2 gnd.t121 sky130_fd_pr__nfet_01v8 ad=0.165 pd=1.33 as=0.165 ps=1.33 w=1 l=0.5
X199 output.t12 CSoutput.t201 vdd.t214 gnd.t28 sky130_fd_pr__nfet_01v8 ad=0.825 pd=5.33 as=0.825 ps=5.33 w=5 l=1
X200 vdd.t174 vdd.t172 vdd.t173 vdd.t165 sky130_fd_pr__pfet_01v8 ad=3.12 pd=16.78 as=0 ps=0 w=8 l=0.5
X201 a_n2140_13878.t13 a_n2318_13878.t39 a_n2318_13878.t40 vdd.t211 sky130_fd_pr__pfet_01v8 ad=1.485 pd=9.33 as=1.485 ps=9.33 w=9 l=0.5
X202 diffpairibias.t9 diffpairibias.t8 gnd.t17 gnd.t16 sky130_fd_pr__nfet_01v8 ad=2.73 pd=14.78 as=2.73 ps=14.78 w=7 l=1
X203 gnd.t298 commonsourceibias.t101 CSoutput.t154 gnd.t229 sky130_fd_pr__nfet_01v8 ad=1.155 pd=7.33 as=1.155 ps=7.33 w=7 l=1
X204 a_n3827_n3924.t18 minus.t13 a_n2318_13878.t43 gnd.t60 sky130_fd_pr__nfet_01v8 ad=1.155 pd=7.33 as=1.155 ps=7.33 w=7 l=0.7
X205 vdd.t80 a_n7636_8799.t77 CSoutput.t50 vdd.t40 sky130_fd_pr__pfet_01v8 ad=1.32 pd=8.33 as=1.32 ps=8.33 w=8 l=0.5
X206 commonsourceibias.t61 commonsourceibias.t60 gnd.t297 gnd.t286 sky130_fd_pr__nfet_01v8 ad=1.155 pd=7.33 as=1.155 ps=7.33 w=7 l=1
X207 a_n2318_8322.t12 a_n2318_13878.t63 a_n7636_8799.t10 vdd.t222 sky130_fd_pr__pfet_01v8 ad=1.485 pd=9.33 as=1.485 ps=9.33 w=9 l=0.5
X208 CSoutput.t49 a_n7636_8799.t78 vdd.t79 vdd.t31 sky130_fd_pr__pfet_01v8 ad=1.32 pd=8.33 as=1.32 ps=8.33 w=8 l=0.5
X209 outputibias.t1 outputibias.t0 gnd.t37 gnd.t36 sky130_fd_pr__nfet_01v8 ad=2.34 pd=12.78 as=2.34 ps=12.78 w=6 l=2
X210 diffpairibias.t7 diffpairibias.t6 gnd.t62 gnd.t61 sky130_fd_pr__nfet_01v8 ad=2.73 pd=14.78 as=2.73 ps=14.78 w=7 l=1
X211 vdd.t74 a_n7636_8799.t79 CSoutput.t48 vdd.t73 sky130_fd_pr__pfet_01v8 ad=1.32 pd=8.33 as=1.32 ps=8.33 w=8 l=0.5
X212 a_n2318_13878.t47 minus.t14 a_n3827_n3924.t41 gnd.t38 sky130_fd_pr__nfet_01v8 ad=1.155 pd=7.33 as=1.155 ps=7.33 w=7 l=0.7
X213 a_n2318_13878.t5 minus.t15 a_n3827_n3924.t9 gnd.t22 sky130_fd_pr__nfet_01v8 ad=1.155 pd=7.33 as=1.155 ps=7.33 w=7 l=0.7
X214 vdd.t257 a_n2318_13878.t64 a_n2318_8322.t23 vdd.t256 sky130_fd_pr__pfet_01v8 ad=1.485 pd=9.33 as=3.51 ps=18.78 w=9 l=0.5
X215 vdd.t78 a_n7636_8799.t80 CSoutput.t47 vdd.t45 sky130_fd_pr__pfet_01v8 ad=3.12 pd=16.78 as=1.32 ps=8.33 w=8 l=0.5
X216 vdd.t77 a_n7636_8799.t81 CSoutput.t46 vdd.t76 sky130_fd_pr__pfet_01v8 ad=1.32 pd=8.33 as=1.32 ps=8.33 w=8 l=0.5
X217 output.t1 outputibias.t10 gnd.t32 gnd.t31 sky130_fd_pr__nfet_01v8 ad=2.34 pd=12.78 as=2.34 ps=12.78 w=6 l=2
X218 CSoutput.t153 commonsourceibias.t102 gnd.t296 gnd.t205 sky130_fd_pr__nfet_01v8 ad=1.155 pd=7.33 as=1.155 ps=7.33 w=7 l=1
X219 CSoutput.t202 a_n2318_8322.t3 sky130_fd_pr__cap_mim_m3_1 l=12 w=12
X220 a_n7636_8799.t20 plus.t13 a_n3827_n3924.t23 gnd.t48 sky130_fd_pr__nfet_01v8 ad=1.155 pd=7.33 as=1.155 ps=7.33 w=7 l=0.7
X221 commonsourceibias.t59 commonsourceibias.t58 gnd.t295 gnd.t260 sky130_fd_pr__nfet_01v8 ad=1.155 pd=7.33 as=1.155 ps=7.33 w=7 l=1
X222 a_n3827_n3924.t39 minus.t16 a_n2318_13878.t45 gnd.t49 sky130_fd_pr__nfet_01v8 ad=1.155 pd=7.33 as=1.155 ps=7.33 w=7 l=0.7
X223 gnd.t119 gnd.t116 gnd.t118 gnd.t117 sky130_fd_pr__nfet_01v8 ad=2.73 pd=14.78 as=0 ps=0 w=7 l=1
X224 a_n2140_13878.t3 a_n2318_13878.t65 vdd.t259 vdd.t258 sky130_fd_pr__pfet_01v8 ad=3.51 pd=18.78 as=1.485 ps=9.33 w=9 l=0.5
X225 vdd.t0 CSoutput.t203 output.t11 gnd.t0 sky130_fd_pr__nfet_01v8 ad=0.825 pd=5.33 as=0.825 ps=5.33 w=5 l=1
X226 CSoutput.t152 commonsourceibias.t103 gnd.t294 gnd.t205 sky130_fd_pr__nfet_01v8 ad=1.155 pd=7.33 as=1.155 ps=7.33 w=7 l=1
X227 vdd.t75 a_n7636_8799.t82 CSoutput.t45 vdd.t55 sky130_fd_pr__pfet_01v8 ad=1.32 pd=8.33 as=1.32 ps=8.33 w=8 l=0.5
X228 gnd.t293 commonsourceibias.t104 CSoutput.t151 gnd.t273 sky130_fd_pr__nfet_01v8 ad=1.155 pd=7.33 as=1.155 ps=7.33 w=7 l=1
X229 CSoutput.t204 a_n2318_8322.t2 sky130_fd_pr__cap_mim_m3_1 l=12 w=12
X230 CSoutput.t44 a_n7636_8799.t83 vdd.t72 vdd.t69 sky130_fd_pr__pfet_01v8 ad=1.32 pd=8.33 as=1.32 ps=8.33 w=8 l=0.5
X231 CSoutput.t43 a_n7636_8799.t84 vdd.t71 vdd.t53 sky130_fd_pr__pfet_01v8 ad=1.32 pd=8.33 as=1.32 ps=8.33 w=8 l=0.5
X232 gnd.t292 commonsourceibias.t56 commonsourceibias.t57 gnd.t218 sky130_fd_pr__nfet_01v8 ad=2.73 pd=14.78 as=1.155 ps=7.33 w=7 l=1
X233 gnd.t291 commonsourceibias.t105 CSoutput.t150 gnd.t235 sky130_fd_pr__nfet_01v8 ad=1.155 pd=7.33 as=1.155 ps=7.33 w=7 l=1
X234 CSoutput.t149 commonsourceibias.t106 gnd.t290 gnd.t216 sky130_fd_pr__nfet_01v8 ad=1.155 pd=7.33 as=1.155 ps=7.33 w=7 l=1
X235 gnd.t115 gnd.t112 gnd.t114 gnd.t113 sky130_fd_pr__nfet_01v8 ad=2.73 pd=14.78 as=0 ps=0 w=7 l=1
X236 CSoutput.t148 commonsourceibias.t107 gnd.t289 gnd.t271 sky130_fd_pr__nfet_01v8 ad=1.155 pd=7.33 as=1.155 ps=7.33 w=7 l=1
X237 vdd.t171 vdd.t168 vdd.t170 vdd.t169 sky130_fd_pr__pfet_01v8 ad=3.12 pd=16.78 as=0 ps=0 w=8 l=0.5
X238 gnd.t288 commonsourceibias.t108 CSoutput.t147 gnd.t211 sky130_fd_pr__nfet_01v8 ad=1.155 pd=7.33 as=1.155 ps=7.33 w=7 l=1
X239 CSoutput.t146 commonsourceibias.t109 gnd.t287 gnd.t286 sky130_fd_pr__nfet_01v8 ad=1.155 pd=7.33 as=1.155 ps=7.33 w=7 l=1
X240 a_n3827_n3924.t13 diffpairibias.t26 gnd.t51 gnd.t50 sky130_fd_pr__nfet_01v8 ad=2.73 pd=14.78 as=2.73 ps=14.78 w=7 l=1
X241 gnd.t285 commonsourceibias.t110 CSoutput.t145 gnd.t213 sky130_fd_pr__nfet_01v8 ad=1.155 pd=7.33 as=1.155 ps=7.33 w=7 l=1
X242 commonsourceibias.t55 commonsourceibias.t54 gnd.t284 gnd.t201 sky130_fd_pr__nfet_01v8 ad=1.155 pd=7.33 as=1.155 ps=7.33 w=7 l=1
X243 vdd.t167 vdd.t164 vdd.t166 vdd.t165 sky130_fd_pr__pfet_01v8 ad=3.12 pd=16.78 as=0 ps=0 w=8 l=0.5
X244 vdd.t262 a_n2318_13878.t66 a_n2318_8322.t22 vdd.t261 sky130_fd_pr__pfet_01v8 ad=1.485 pd=9.33 as=1.485 ps=9.33 w=9 l=0.5
X245 a_n2318_8322.t11 a_n2318_13878.t67 a_n7636_8799.t29 vdd.t215 sky130_fd_pr__pfet_01v8 ad=1.485 pd=9.33 as=1.485 ps=9.33 w=9 l=0.5
X246 CSoutput.t42 a_n7636_8799.t85 vdd.t70 vdd.t69 sky130_fd_pr__pfet_01v8 ad=1.32 pd=8.33 as=1.32 ps=8.33 w=8 l=0.5
X247 vdd.t68 a_n7636_8799.t86 CSoutput.t41 vdd.t4 sky130_fd_pr__pfet_01v8 ad=1.32 pd=8.33 as=1.32 ps=8.33 w=8 l=0.5
X248 CSoutput.t144 commonsourceibias.t111 gnd.t283 gnd.t231 sky130_fd_pr__nfet_01v8 ad=1.155 pd=7.33 as=1.155 ps=7.33 w=7 l=1
X249 CSoutput.t40 a_n7636_8799.t87 vdd.t67 vdd.t22 sky130_fd_pr__pfet_01v8 ad=1.32 pd=8.33 as=1.32 ps=8.33 w=8 l=0.5