* NGSPICE file created from opamp.ext - technology: sky130A

.subckt opamp output vdd plus minus commonsourceibias outputibias diffpairibias gnd CSoutput
Cload output gnd 0.0p
X0 CSoutput.t108 commonsourceibias.t48 gnd.t187 gnd.t136 sky130_fd_pr__nfet_01v8 ad=1.155 pd=7.33 as=1.155 ps=7.33 w=7 l=1
X1 a_n5644_8799.t19 plus.t5 a_n2903_n3924.t17 gnd.t23 sky130_fd_pr__nfet_01v8 ad=1.155 pd=7.33 as=1.155 ps=7.33 w=7 l=0.7
X2 vdd.t86 a_n5644_8799.t32 CSoutput.t115 vdd.t33 sky130_fd_pr__pfet_01v8_lvt ad=1.32 pd=8.33 as=1.32 ps=8.33 w=8 l=0.5
X3 a_n1986_8322.t19 a_n1996_n452.t44 vdd.t107 vdd.t106 sky130_fd_pr__pfet_01v8_lvt ad=1.485 pd=9.33 as=1.485 ps=9.33 w=9 l=0.5
X4 a_n1808_13878.t11 a_n1996_n452.t26 a_n1996_n452.t27 vdd.t6 sky130_fd_pr__pfet_01v8_lvt ad=1.485 pd=9.33 as=3.51 ps=18.78 w=9 l=0.5
X5 CSoutput.t107 commonsourceibias.t49 gnd.t186 gnd.t68 sky130_fd_pr__nfet_01v8 ad=1.155 pd=7.33 as=1.155 ps=7.33 w=7 l=1
X6 gnd.t185 commonsourceibias.t50 CSoutput.t106 gnd.t129 sky130_fd_pr__nfet_01v8 ad=1.155 pd=7.33 as=1.155 ps=7.33 w=7 l=1
X7 CSoutput.t105 commonsourceibias.t51 gnd.t184 gnd.t108 sky130_fd_pr__nfet_01v8 ad=1.155 pd=7.33 as=1.155 ps=7.33 w=7 l=1
X8 gnd.t323 gnd.t321 plus.t4 gnd.t322 sky130_fd_pr__nfet_01v8 ad=0.165 pd=1.33 as=0.165 ps=1.33 w=1 l=0.5
X9 a_n2903_n3924.t16 plus.t6 a_n5644_8799.t18 gnd.t5 sky130_fd_pr__nfet_01v8 ad=1.155 pd=7.33 as=1.155 ps=7.33 w=7 l=0.7
X10 a_n1996_n452.t21 a_n1996_n452.t20 a_n1808_13878.t10 vdd.t88 sky130_fd_pr__pfet_01v8_lvt ad=1.485 pd=9.33 as=1.485 ps=9.33 w=9 l=0.5
X11 a_n1808_13878.t9 a_n1996_n452.t28 a_n1996_n452.t29 vdd.t108 sky130_fd_pr__pfet_01v8_lvt ad=1.485 pd=9.33 as=1.485 ps=9.33 w=9 l=0.5
X12 vdd.t199 vdd.t197 vdd.t198 vdd.t172 sky130_fd_pr__pfet_01v8_lvt ad=3.51 pd=18.78 as=0 ps=0 w=9 l=0.5
X13 a_n1808_13878.t19 a_n1996_n452.t45 vdd.t110 vdd.t109 sky130_fd_pr__pfet_01v8_lvt ad=1.485 pd=9.33 as=1.485 ps=9.33 w=9 l=0.5
X14 output.t3 outputibias.t8 gnd.t46 gnd.t45 sky130_fd_pr__nfet_01v8 ad=2.34 pd=12.78 as=2.34 ps=12.78 w=6 l=2
X15 CSoutput.t24 a_n5644_8799.t33 vdd.t85 vdd.t29 sky130_fd_pr__pfet_01v8_lvt ad=1.32 pd=8.33 as=1.32 ps=8.33 w=8 l=0.5
X16 a_n2903_n3924.t25 minus.t5 a_n1996_n452.t2 gnd.t17 sky130_fd_pr__nfet_01v8 ad=2.73 pd=14.78 as=1.155 ps=7.33 w=7 l=0.7
X17 vdd.t196 vdd.t194 vdd.t195 vdd.t147 sky130_fd_pr__pfet_01v8_lvt ad=3.12 pd=16.78 as=0 ps=0 w=8 l=0.5
X18 gnd.t183 commonsourceibias.t52 CSoutput.t104 gnd.t90 sky130_fd_pr__nfet_01v8 ad=2.73 pd=14.78 as=1.155 ps=7.33 w=7 l=1
X19 CSoutput.t103 commonsourceibias.t53 gnd.t182 gnd.t127 sky130_fd_pr__nfet_01v8 ad=1.155 pd=7.33 as=1.155 ps=7.33 w=7 l=1
X20 gnd.t181 commonsourceibias.t54 CSoutput.t102 gnd.t79 sky130_fd_pr__nfet_01v8 ad=2.73 pd=14.78 as=1.155 ps=7.33 w=7 l=1
X21 CSoutput.t101 commonsourceibias.t55 gnd.t180 gnd.t127 sky130_fd_pr__nfet_01v8 ad=1.155 pd=7.33 as=1.155 ps=7.33 w=7 l=1
X22 a_n1996_n452.t9 minus.t6 a_n2903_n3924.t32 gnd.t31 sky130_fd_pr__nfet_01v8 ad=1.155 pd=7.33 as=1.155 ps=7.33 w=7 l=0.7
X23 gnd.t320 gnd.t317 gnd.t319 gnd.t318 sky130_fd_pr__nfet_01v8 ad=2.34 pd=12.78 as=0 ps=0 w=6 l=2
X24 CSoutput.t100 commonsourceibias.t56 gnd.t179 gnd.t140 sky130_fd_pr__nfet_01v8 ad=1.155 pd=7.33 as=1.155 ps=7.33 w=7 l=1
X25 a_n1986_8322.t11 a_n1996_n452.t46 a_n5644_8799.t26 vdd.t87 sky130_fd_pr__pfet_01v8_lvt ad=1.485 pd=9.33 as=1.485 ps=9.33 w=9 l=0.5
X26 CSoutput.t99 commonsourceibias.t57 gnd.t178 gnd.t68 sky130_fd_pr__nfet_01v8 ad=1.155 pd=7.33 as=1.155 ps=7.33 w=7 l=1
X27 a_n1996_n452.t40 minus.t7 a_n2903_n3924.t39 gnd.t38 sky130_fd_pr__nfet_01v8 ad=1.155 pd=7.33 as=1.155 ps=7.33 w=7 l=0.7
X28 gnd.t177 commonsourceibias.t58 CSoutput.t98 gnd.t120 sky130_fd_pr__nfet_01v8 ad=1.155 pd=7.33 as=1.155 ps=7.33 w=7 l=1
X29 CSoutput.t97 commonsourceibias.t59 gnd.t176 gnd.t100 sky130_fd_pr__nfet_01v8 ad=1.155 pd=7.33 as=1.155 ps=7.33 w=7 l=1
X30 CSoutput.t96 commonsourceibias.t60 gnd.t175 gnd.t136 sky130_fd_pr__nfet_01v8 ad=1.155 pd=7.33 as=1.155 ps=7.33 w=7 l=1
X31 gnd.t316 gnd.t314 gnd.t315 gnd.t240 sky130_fd_pr__nfet_01v8 ad=2.73 pd=14.78 as=0 ps=0 w=7 l=1
X32 a_n2903_n3924.t28 minus.t8 a_n1996_n452.t5 gnd.t19 sky130_fd_pr__nfet_01v8 ad=2.73 pd=14.78 as=1.155 ps=7.33 w=7 l=0.7
X33 CSoutput.t120 a_n1986_8322.t20 sky130_fd_pr__cap_mim_m3_1 l=12 w=12
X34 CSoutput.t2 a_n5644_8799.t34 vdd.t84 vdd.t42 sky130_fd_pr__pfet_01v8_lvt ad=1.32 pd=8.33 as=3.12 ps=16.78 w=8 l=0.5
X35 vdd.t83 a_n5644_8799.t35 CSoutput.t21 vdd.t60 sky130_fd_pr__pfet_01v8_lvt ad=3.12 pd=16.78 as=1.32 ps=8.33 w=8 l=0.5
X36 CSoutput.t95 commonsourceibias.t61 gnd.t174 gnd.t116 sky130_fd_pr__nfet_01v8 ad=1.155 pd=7.33 as=1.155 ps=7.33 w=7 l=1
X37 a_n5644_8799.t20 a_n1996_n452.t47 a_n1986_8322.t10 vdd.t6 sky130_fd_pr__pfet_01v8_lvt ad=1.485 pd=9.33 as=3.51 ps=18.78 w=9 l=0.5
X38 CSoutput.t13 a_n5644_8799.t36 vdd.t82 vdd.t23 sky130_fd_pr__pfet_01v8_lvt ad=1.32 pd=8.33 as=3.12 ps=16.78 w=8 l=0.5
X39 vdd.t81 a_n5644_8799.t37 CSoutput.t10 vdd.t76 sky130_fd_pr__pfet_01v8_lvt ad=1.32 pd=8.33 as=1.32 ps=8.33 w=8 l=0.5
X40 gnd.t161 commonsourceibias.t62 CSoutput.t94 gnd.t98 sky130_fd_pr__nfet_01v8 ad=1.155 pd=7.33 as=1.155 ps=7.33 w=7 l=1
X41 a_n2903_n3924.t41 diffpairibias.t16 gnd.t48 gnd.t47 sky130_fd_pr__nfet_01v8 ad=2.73 pd=14.78 as=2.73 ps=14.78 w=7 l=1
X42 CSoutput.t93 commonsourceibias.t63 gnd.t173 gnd.t83 sky130_fd_pr__nfet_01v8 ad=1.155 pd=7.33 as=2.73 ps=14.78 w=7 l=1
X43 gnd.t172 commonsourceibias.t46 commonsourceibias.t47 gnd.t93 sky130_fd_pr__nfet_01v8 ad=1.155 pd=7.33 as=1.155 ps=7.33 w=7 l=1
X44 gnd.t313 gnd.t310 gnd.t312 gnd.t311 sky130_fd_pr__nfet_01v8 ad=2.34 pd=12.78 as=0 ps=0 w=6 l=2
X45 output.t19 CSoutput.t121 vdd.t99 gnd.t58 sky130_fd_pr__nfet_01v8_lvt ad=0.825 pd=5.33 as=0.825 ps=5.33 w=5 l=1
X46 CSoutput.t92 commonsourceibias.t64 gnd.t171 gnd.t116 sky130_fd_pr__nfet_01v8 ad=1.155 pd=7.33 as=1.155 ps=7.33 w=7 l=1
X47 CSoutput.t119 a_n5644_8799.t38 vdd.t80 vdd.t38 sky130_fd_pr__pfet_01v8_lvt ad=1.32 pd=8.33 as=1.32 ps=8.33 w=8 l=0.5
X48 vdd.t193 vdd.t191 vdd.t192 vdd.t125 sky130_fd_pr__pfet_01v8_lvt ad=3.12 pd=16.78 as=0 ps=0 w=8 l=0.5
X49 a_n2903_n3924.t11 plus.t7 a_n5644_8799.t17 gnd.t21 sky130_fd_pr__nfet_01v8 ad=1.155 pd=7.33 as=1.155 ps=7.33 w=7 l=0.7
X50 CSoutput.t91 commonsourceibias.t65 gnd.t170 gnd.t95 sky130_fd_pr__nfet_01v8 ad=1.155 pd=7.33 as=1.155 ps=7.33 w=7 l=1
X51 a_n5644_8799.t16 plus.t8 a_n2903_n3924.t7 gnd.t20 sky130_fd_pr__nfet_01v8 ad=1.155 pd=7.33 as=1.155 ps=7.33 w=7 l=0.7
X52 outputibias.t7 outputibias.t6 gnd.t189 gnd.t188 sky130_fd_pr__nfet_01v8 ad=2.34 pd=12.78 as=2.34 ps=12.78 w=6 l=2
X53 gnd.t169 commonsourceibias.t66 CSoutput.t90 gnd.t129 sky130_fd_pr__nfet_01v8 ad=1.155 pd=7.33 as=1.155 ps=7.33 w=7 l=1
X54 output.t18 CSoutput.t122 vdd.t92 gnd.t7 sky130_fd_pr__nfet_01v8_lvt ad=0.825 pd=5.33 as=0.825 ps=5.33 w=5 l=1
X55 CSoutput.t89 commonsourceibias.t67 gnd.t168 gnd.t95 sky130_fd_pr__nfet_01v8 ad=1.155 pd=7.33 as=1.155 ps=7.33 w=7 l=1
X56 gnd.t309 gnd.t307 gnd.t308 gnd.t240 sky130_fd_pr__nfet_01v8 ad=2.73 pd=14.78 as=0 ps=0 w=7 l=1
X57 CSoutput.t88 commonsourceibias.t68 gnd.t167 gnd.t127 sky130_fd_pr__nfet_01v8 ad=1.155 pd=7.33 as=1.155 ps=7.33 w=7 l=1
X58 gnd.t166 commonsourceibias.t44 commonsourceibias.t45 gnd.t70 sky130_fd_pr__nfet_01v8 ad=1.155 pd=7.33 as=1.155 ps=7.33 w=7 l=1
X59 gnd.t306 gnd.t304 gnd.t305 gnd.t215 sky130_fd_pr__nfet_01v8 ad=2.73 pd=14.78 as=0 ps=0 w=7 l=1
X60 a_n1808_13878.t8 a_n1996_n452.t24 a_n1996_n452.t25 vdd.t19 sky130_fd_pr__pfet_01v8_lvt ad=1.485 pd=9.33 as=3.51 ps=18.78 w=9 l=0.5
X61 vdd.t79 a_n5644_8799.t39 CSoutput.t111 vdd.t76 sky130_fd_pr__pfet_01v8_lvt ad=1.32 pd=8.33 as=1.32 ps=8.33 w=8 l=0.5
X62 a_n1996_n452.t41 minus.t9 a_n2903_n3924.t40 gnd.t0 sky130_fd_pr__nfet_01v8 ad=1.155 pd=7.33 as=1.155 ps=7.33 w=7 l=0.7
X63 diffpairibias.t15 diffpairibias.t14 gnd.t193 gnd.t192 sky130_fd_pr__nfet_01v8 ad=2.73 pd=14.78 as=2.73 ps=14.78 w=7 l=1
X64 a_n1996_n452.t23 a_n1996_n452.t22 a_n1808_13878.t7 vdd.t120 sky130_fd_pr__pfet_01v8_lvt ad=1.485 pd=9.33 as=1.485 ps=9.33 w=9 l=0.5
X65 CSoutput.t1 a_n5644_8799.t40 vdd.t78 vdd.t54 sky130_fd_pr__pfet_01v8_lvt ad=1.32 pd=8.33 as=1.32 ps=8.33 w=8 l=0.5
X66 CSoutput.t87 commonsourceibias.t69 gnd.t165 gnd.t114 sky130_fd_pr__nfet_01v8 ad=1.155 pd=7.33 as=2.73 ps=14.78 w=7 l=1
X67 CSoutput.t86 commonsourceibias.t70 gnd.t164 gnd.t83 sky130_fd_pr__nfet_01v8 ad=1.155 pd=7.33 as=2.73 ps=14.78 w=7 l=1
X68 vdd.t190 vdd.t188 vdd.t189 vdd.t157 sky130_fd_pr__pfet_01v8_lvt ad=3.51 pd=18.78 as=0 ps=0 w=9 l=0.5
X69 gnd.t163 commonsourceibias.t71 CSoutput.t85 gnd.t103 sky130_fd_pr__nfet_01v8 ad=1.155 pd=7.33 as=1.155 ps=7.33 w=7 l=1
X70 gnd.t160 commonsourceibias.t72 CSoutput.t84 gnd.t77 sky130_fd_pr__nfet_01v8 ad=1.155 pd=7.33 as=1.155 ps=7.33 w=7 l=1
X71 plus.t3 gnd.t301 gnd.t303 gnd.t302 sky130_fd_pr__nfet_01v8 ad=0.165 pd=1.33 as=0.165 ps=1.33 w=1 l=0.5
X72 CSoutput.t83 commonsourceibias.t73 gnd.t162 gnd.t114 sky130_fd_pr__nfet_01v8 ad=1.155 pd=7.33 as=2.73 ps=14.78 w=7 l=1
X73 diffpairibias.t13 diffpairibias.t12 gnd.t195 gnd.t194 sky130_fd_pr__nfet_01v8 ad=2.73 pd=14.78 as=2.73 ps=14.78 w=7 l=1
X74 gnd.t159 commonsourceibias.t26 commonsourceibias.t27 gnd.t105 sky130_fd_pr__nfet_01v8 ad=1.155 pd=7.33 as=1.155 ps=7.33 w=7 l=1
X75 vdd.t187 vdd.t185 vdd.t186 vdd.t136 sky130_fd_pr__pfet_01v8_lvt ad=3.12 pd=16.78 as=0 ps=0 w=8 l=0.5
X76 gnd.t300 gnd.t298 gnd.t299 gnd.t223 sky130_fd_pr__nfet_01v8 ad=2.73 pd=14.78 as=0 ps=0 w=7 l=0.7
X77 CSoutput.t82 commonsourceibias.t74 gnd.t158 gnd.t88 sky130_fd_pr__nfet_01v8 ad=1.155 pd=7.33 as=1.155 ps=7.33 w=7 l=1
X78 gnd.t157 commonsourceibias.t75 CSoutput.t81 gnd.t105 sky130_fd_pr__nfet_01v8 ad=1.155 pd=7.33 as=1.155 ps=7.33 w=7 l=1
X79 CSoutput.t80 commonsourceibias.t76 gnd.t156 gnd.t140 sky130_fd_pr__nfet_01v8 ad=1.155 pd=7.33 as=1.155 ps=7.33 w=7 l=1
X80 vdd.t77 a_n5644_8799.t41 CSoutput.t12 vdd.t76 sky130_fd_pr__pfet_01v8_lvt ad=1.32 pd=8.33 as=1.32 ps=8.33 w=8 l=0.5
X81 gnd.t155 commonsourceibias.t77 CSoutput.t79 gnd.t120 sky130_fd_pr__nfet_01v8 ad=1.155 pd=7.33 as=1.155 ps=7.33 w=7 l=1
X82 output.t17 CSoutput.t123 vdd.t90 gnd.t8 sky130_fd_pr__nfet_01v8_lvt ad=0.825 pd=5.33 as=0.825 ps=5.33 w=5 l=1
X83 vdd.t75 a_n5644_8799.t42 CSoutput.t110 vdd.t51 sky130_fd_pr__pfet_01v8_lvt ad=1.32 pd=8.33 as=1.32 ps=8.33 w=8 l=0.5
X84 CSoutput.t27 a_n5644_8799.t43 vdd.t74 vdd.t23 sky130_fd_pr__pfet_01v8_lvt ad=1.32 pd=8.33 as=3.12 ps=16.78 w=8 l=0.5
X85 vdd.t73 a_n5644_8799.t44 CSoutput.t3 vdd.t27 sky130_fd_pr__pfet_01v8_lvt ad=1.32 pd=8.33 as=1.32 ps=8.33 w=8 l=0.5
X86 a_n2903_n3924.t3 plus.t9 a_n5644_8799.t15 gnd.t55 sky130_fd_pr__nfet_01v8 ad=1.155 pd=7.33 as=1.155 ps=7.33 w=7 l=0.7
X87 gnd.t154 commonsourceibias.t78 CSoutput.t78 gnd.t105 sky130_fd_pr__nfet_01v8 ad=1.155 pd=7.33 as=1.155 ps=7.33 w=7 l=1
X88 gnd.t297 gnd.t294 gnd.t296 gnd.t295 sky130_fd_pr__nfet_01v8_lvt ad=1.95 pd=10.78 as=0 ps=0 w=5 l=1
X89 CSoutput.t22 a_n5644_8799.t45 vdd.t72 vdd.t38 sky130_fd_pr__pfet_01v8_lvt ad=1.32 pd=8.33 as=1.32 ps=8.33 w=8 l=0.5
X90 CSoutput.t28 a_n5644_8799.t46 vdd.t71 vdd.t64 sky130_fd_pr__pfet_01v8_lvt ad=1.32 pd=8.33 as=1.32 ps=8.33 w=8 l=0.5
X91 vdd.t89 CSoutput.t124 output.t16 gnd.t9 sky130_fd_pr__nfet_01v8_lvt ad=0.825 pd=5.33 as=0.825 ps=5.33 w=5 l=1
X92 a_n2903_n3924.t42 diffpairibias.t17 gnd.t52 gnd.t51 sky130_fd_pr__nfet_01v8 ad=2.73 pd=14.78 as=2.73 ps=14.78 w=7 l=1
X93 CSoutput.t33 a_n5644_8799.t47 vdd.t70 vdd.t64 sky130_fd_pr__pfet_01v8_lvt ad=1.32 pd=8.33 as=1.32 ps=8.33 w=8 l=0.5
X94 gnd.t153 commonsourceibias.t79 CSoutput.t77 gnd.t98 sky130_fd_pr__nfet_01v8 ad=1.155 pd=7.33 as=1.155 ps=7.33 w=7 l=1
X95 gnd.t293 gnd.t291 gnd.t292 gnd.t219 sky130_fd_pr__nfet_01v8 ad=2.73 pd=14.78 as=0 ps=0 w=7 l=1
X96 vdd.t69 a_n5644_8799.t48 CSoutput.t15 vdd.t62 sky130_fd_pr__pfet_01v8_lvt ad=1.32 pd=8.33 as=1.32 ps=8.33 w=8 l=0.5
X97 gnd.t290 gnd.t288 gnd.t289 gnd.t219 sky130_fd_pr__nfet_01v8 ad=2.73 pd=14.78 as=0 ps=0 w=7 l=1
X98 a_n1996_n452.t37 a_n1996_n452.t36 a_n1808_13878.t6 vdd.t87 sky130_fd_pr__pfet_01v8_lvt ad=1.485 pd=9.33 as=1.485 ps=9.33 w=9 l=0.5
X99 a_n1996_n452.t31 a_n1996_n452.t30 a_n1808_13878.t5 vdd.t9 sky130_fd_pr__pfet_01v8_lvt ad=3.51 pd=18.78 as=1.485 ps=9.33 w=9 l=0.5
X100 vdd.t68 a_n5644_8799.t49 CSoutput.t19 vdd.t60 sky130_fd_pr__pfet_01v8_lvt ad=3.12 pd=16.78 as=1.32 ps=8.33 w=8 l=0.5
X101 a_n5644_8799.t24 a_n1996_n452.t48 a_n1986_8322.t9 vdd.t20 sky130_fd_pr__pfet_01v8_lvt ad=1.485 pd=9.33 as=1.485 ps=9.33 w=9 l=0.5
X102 gnd.t152 commonsourceibias.t80 CSoutput.t76 gnd.t75 sky130_fd_pr__nfet_01v8 ad=1.155 pd=7.33 as=1.155 ps=7.33 w=7 l=1
X103 vdd.t67 a_n5644_8799.t50 CSoutput.t36 vdd.t62 sky130_fd_pr__pfet_01v8_lvt ad=1.32 pd=8.33 as=1.32 ps=8.33 w=8 l=0.5
X104 a_n1996_n452.t4 minus.t10 a_n2903_n3924.t27 gnd.t12 sky130_fd_pr__nfet_01v8 ad=1.155 pd=7.33 as=1.155 ps=7.33 w=7 l=0.7
X105 gnd.t151 commonsourceibias.t81 CSoutput.t75 gnd.t93 sky130_fd_pr__nfet_01v8 ad=1.155 pd=7.33 as=1.155 ps=7.33 w=7 l=1
X106 gnd.t150 commonsourceibias.t2 commonsourceibias.t3 gnd.t79 sky130_fd_pr__nfet_01v8 ad=2.73 pd=14.78 as=1.155 ps=7.33 w=7 l=1
X107 vdd.t91 CSoutput.t125 output.t15 gnd.t1 sky130_fd_pr__nfet_01v8_lvt ad=0.825 pd=5.33 as=0.825 ps=5.33 w=5 l=1
X108 vdd.t184 vdd.t182 vdd.t183 vdd.t136 sky130_fd_pr__pfet_01v8_lvt ad=3.12 pd=16.78 as=0 ps=0 w=8 l=0.5
X109 a_n2903_n3924.t26 minus.t11 a_n1996_n452.t3 gnd.t18 sky130_fd_pr__nfet_01v8 ad=1.155 pd=7.33 as=1.155 ps=7.33 w=7 l=0.7
X110 output.t14 CSoutput.t126 vdd.t100 gnd.t2 sky130_fd_pr__nfet_01v8_lvt ad=0.825 pd=5.33 as=0.825 ps=5.33 w=5 l=1
X111 CSoutput.t127 a_n1986_8322.t21 sky130_fd_pr__cap_mim_m3_1 l=12 w=12
X112 output.t2 outputibias.t9 gnd.t57 gnd.t56 sky130_fd_pr__nfet_01v8 ad=2.34 pd=12.78 as=2.34 ps=12.78 w=6 l=2
X113 vdd.t66 a_n5644_8799.t51 CSoutput.t4 vdd.t51 sky130_fd_pr__pfet_01v8_lvt ad=1.32 pd=8.33 as=1.32 ps=8.33 w=8 l=0.5
X114 vdd.t181 vdd.t179 vdd.t180 vdd.t165 sky130_fd_pr__pfet_01v8_lvt ad=3.51 pd=18.78 as=0 ps=0 w=9 l=0.5
X115 vdd.t178 vdd.t175 vdd.t177 vdd.t176 sky130_fd_pr__pfet_01v8_lvt ad=3.51 pd=18.78 as=0 ps=0 w=9 l=0.5
X116 gnd.t287 gnd.t285 gnd.t286 gnd.t233 sky130_fd_pr__nfet_01v8 ad=2.73 pd=14.78 as=0 ps=0 w=7 l=0.7
X117 CSoutput.t74 commonsourceibias.t82 gnd.t149 gnd.t140 sky130_fd_pr__nfet_01v8 ad=1.155 pd=7.33 as=1.155 ps=7.33 w=7 l=1
X118 a_n2903_n3924.t46 diffpairibias.t18 gnd.t191 gnd.t190 sky130_fd_pr__nfet_01v8 ad=2.73 pd=14.78 as=2.73 ps=14.78 w=7 l=1
X119 outputibias.t5 outputibias.t4 gnd.t42 gnd.t41 sky130_fd_pr__nfet_01v8 ad=2.34 pd=12.78 as=2.34 ps=12.78 w=6 l=2
X120 vdd.t174 vdd.t171 vdd.t173 vdd.t172 sky130_fd_pr__pfet_01v8_lvt ad=3.51 pd=18.78 as=0 ps=0 w=9 l=0.5
X121 gnd.t284 gnd.t282 gnd.t283 gnd.t215 sky130_fd_pr__nfet_01v8 ad=2.73 pd=14.78 as=0 ps=0 w=7 l=1
X122 CSoutput.t73 commonsourceibias.t83 gnd.t148 gnd.t136 sky130_fd_pr__nfet_01v8 ad=1.155 pd=7.33 as=1.155 ps=7.33 w=7 l=1
X123 a_n2903_n3924.t38 minus.t12 a_n1996_n452.t39 gnd.t36 sky130_fd_pr__nfet_01v8 ad=1.155 pd=7.33 as=1.155 ps=7.33 w=7 l=0.7
X124 output.t13 CSoutput.t128 vdd.t98 gnd.t24 sky130_fd_pr__nfet_01v8_lvt ad=0.825 pd=5.33 as=0.825 ps=5.33 w=5 l=1
X125 vdd.t3 a_n1996_n452.t49 a_n1986_8322.t18 vdd.t2 sky130_fd_pr__pfet_01v8_lvt ad=1.485 pd=9.33 as=1.485 ps=9.33 w=9 l=0.5
X126 vdd.t170 vdd.t168 vdd.t169 vdd.t161 sky130_fd_pr__pfet_01v8_lvt ad=3.51 pd=18.78 as=0 ps=0 w=9 l=0.5
X127 a_n1996_n452.t38 minus.t13 a_n2903_n3924.t37 gnd.t35 sky130_fd_pr__nfet_01v8 ad=1.155 pd=7.33 as=2.73 ps=14.78 w=7 l=0.7
X128 CSoutput.t11 a_n5644_8799.t52 vdd.t65 vdd.t64 sky130_fd_pr__pfet_01v8_lvt ad=1.32 pd=8.33 as=1.32 ps=8.33 w=8 l=0.5
X129 a_n1986_8322.t17 a_n1996_n452.t50 vdd.t123 vdd.t122 sky130_fd_pr__pfet_01v8_lvt ad=1.485 pd=9.33 as=1.485 ps=9.33 w=9 l=0.5
X130 a_n2903_n3924.t12 plus.t10 a_n5644_8799.t14 gnd.t34 sky130_fd_pr__nfet_01v8 ad=1.155 pd=7.33 as=1.155 ps=7.33 w=7 l=0.7
X131 a_n2903_n3924.t5 plus.t11 a_n5644_8799.t13 gnd.t22 sky130_fd_pr__nfet_01v8 ad=1.155 pd=7.33 as=1.155 ps=7.33 w=7 l=0.7
X132 outputibias.t3 outputibias.t2 gnd.t66 gnd.t65 sky130_fd_pr__nfet_01v8 ad=2.34 pd=12.78 as=2.34 ps=12.78 w=6 l=2
X133 vdd.t63 a_n5644_8799.t53 CSoutput.t16 vdd.t62 sky130_fd_pr__pfet_01v8_lvt ad=1.32 pd=8.33 as=1.32 ps=8.33 w=8 l=0.5
X134 gnd.t281 gnd.t279 gnd.t280 gnd.t219 sky130_fd_pr__nfet_01v8 ad=2.73 pd=14.78 as=0 ps=0 w=7 l=1
X135 vdd.t5 a_n1996_n452.t51 a_n1808_13878.t18 vdd.t4 sky130_fd_pr__pfet_01v8_lvt ad=1.485 pd=9.33 as=1.485 ps=9.33 w=9 l=0.5
X136 a_n5644_8799.t12 plus.t12 a_n2903_n3924.t1 gnd.t37 sky130_fd_pr__nfet_01v8 ad=1.155 pd=7.33 as=1.155 ps=7.33 w=7 l=0.7
X137 a_n5644_8799.t11 plus.t13 a_n2903_n3924.t9 gnd.t6 sky130_fd_pr__nfet_01v8 ad=1.155 pd=7.33 as=2.73 ps=14.78 w=7 l=0.7
X138 vdd.t167 vdd.t164 vdd.t166 vdd.t165 sky130_fd_pr__pfet_01v8_lvt ad=3.51 pd=18.78 as=0 ps=0 w=9 l=0.5
X139 a_n1996_n452.t10 minus.t14 a_n2903_n3924.t33 gnd.t32 sky130_fd_pr__nfet_01v8 ad=1.155 pd=7.33 as=1.155 ps=7.33 w=7 l=0.7
X140 diffpairibias.t11 diffpairibias.t10 gnd.t203 gnd.t202 sky130_fd_pr__nfet_01v8 ad=2.73 pd=14.78 as=2.73 ps=14.78 w=7 l=1
X141 vdd.t163 vdd.t160 vdd.t162 vdd.t161 sky130_fd_pr__pfet_01v8_lvt ad=3.51 pd=18.78 as=0 ps=0 w=9 l=0.5
X142 vdd.t61 a_n5644_8799.t54 CSoutput.t0 vdd.t60 sky130_fd_pr__pfet_01v8_lvt ad=3.12 pd=16.78 as=1.32 ps=8.33 w=8 l=0.5
X143 CSoutput.t72 commonsourceibias.t84 gnd.t147 gnd.t108 sky130_fd_pr__nfet_01v8 ad=1.155 pd=7.33 as=1.155 ps=7.33 w=7 l=1
X144 gnd.t278 gnd.t276 minus.t4 gnd.t277 sky130_fd_pr__nfet_01v8 ad=0.165 pd=1.33 as=0.39 ps=2.78 w=1 l=0.5
X145 gnd.t146 commonsourceibias.t85 CSoutput.t71 gnd.t129 sky130_fd_pr__nfet_01v8 ad=1.155 pd=7.33 as=1.155 ps=7.33 w=7 l=1
X146 commonsourceibias.t1 commonsourceibias.t0 gnd.t145 gnd.t68 sky130_fd_pr__nfet_01v8 ad=1.155 pd=7.33 as=1.155 ps=7.33 w=7 l=1
X147 a_n5644_8799.t27 a_n1996_n452.t52 a_n1986_8322.t8 vdd.t105 sky130_fd_pr__pfet_01v8_lvt ad=1.485 pd=9.33 as=1.485 ps=9.33 w=9 l=0.5
X148 a_n1986_8322.t16 a_n1996_n452.t53 vdd.t114 vdd.t113 sky130_fd_pr__pfet_01v8_lvt ad=3.51 pd=18.78 as=1.485 ps=9.33 w=9 l=0.5
X149 vdd.t159 vdd.t156 vdd.t158 vdd.t157 sky130_fd_pr__pfet_01v8_lvt ad=3.51 pd=18.78 as=0 ps=0 w=9 l=0.5
X150 a_n2903_n3924.t35 minus.t15 a_n1996_n452.t12 gnd.t33 sky130_fd_pr__nfet_01v8 ad=1.155 pd=7.33 as=1.155 ps=7.33 w=7 l=0.7
X151 vdd.t103 CSoutput.t129 output.t12 gnd.t25 sky130_fd_pr__nfet_01v8_lvt ad=0.825 pd=5.33 as=0.825 ps=5.33 w=5 l=1
X152 a_n1996_n452.t35 a_n1996_n452.t34 a_n1808_13878.t4 vdd.t121 sky130_fd_pr__pfet_01v8_lvt ad=1.485 pd=9.33 as=1.485 ps=9.33 w=9 l=0.5
X153 CSoutput.t130 a_n1986_8322.t23 sky130_fd_pr__cap_mim_m3_1 l=12 w=12
X154 a_n5644_8799.t25 a_n1996_n452.t54 a_n1986_8322.t7 vdd.t108 sky130_fd_pr__pfet_01v8_lvt ad=1.485 pd=9.33 as=1.485 ps=9.33 w=9 l=0.5
X155 CSoutput.t70 commonsourceibias.t86 gnd.t144 gnd.t95 sky130_fd_pr__nfet_01v8 ad=1.155 pd=7.33 as=1.155 ps=7.33 w=7 l=1
X156 CSoutput.t131 a_n1986_8322.t22 sky130_fd_pr__cap_mim_m3_1 l=12 w=12
X157 a_n1808_13878.t3 a_n1996_n452.t14 a_n1996_n452.t15 vdd.t20 sky130_fd_pr__pfet_01v8_lvt ad=1.485 pd=9.33 as=1.485 ps=9.33 w=9 l=0.5
X158 gnd.t142 commonsourceibias.t87 CSoutput.t69 gnd.t120 sky130_fd_pr__nfet_01v8 ad=1.155 pd=7.33 as=1.155 ps=7.33 w=7 l=1
X159 gnd.t143 commonsourceibias.t88 CSoutput.t68 gnd.t103 sky130_fd_pr__nfet_01v8 ad=1.155 pd=7.33 as=1.155 ps=7.33 w=7 l=1
X160 commonsourceibias.t37 commonsourceibias.t36 gnd.t141 gnd.t140 sky130_fd_pr__nfet_01v8 ad=1.155 pd=7.33 as=1.155 ps=7.33 w=7 l=1
X161 gnd.t139 commonsourceibias.t89 CSoutput.t67 gnd.t90 sky130_fd_pr__nfet_01v8 ad=2.73 pd=14.78 as=1.155 ps=7.33 w=7 l=1
X162 vdd.t117 a_n1996_n452.t55 a_n1986_8322.t15 vdd.t116 sky130_fd_pr__pfet_01v8_lvt ad=1.485 pd=9.33 as=3.51 ps=18.78 w=9 l=0.5
X163 gnd.t275 gnd.t273 minus.t3 gnd.t274 sky130_fd_pr__nfet_01v8 ad=0.165 pd=1.33 as=0.165 ps=1.33 w=1 l=0.5
X164 CSoutput.t66 commonsourceibias.t90 gnd.t138 gnd.t100 sky130_fd_pr__nfet_01v8 ad=1.155 pd=7.33 as=1.155 ps=7.33 w=7 l=1
X165 a_n2903_n3924.t14 plus.t14 a_n5644_8799.t10 gnd.t17 sky130_fd_pr__nfet_01v8 ad=2.73 pd=14.78 as=1.155 ps=7.33 w=7 l=0.7
X166 outputibias.t1 outputibias.t0 gnd.t199 gnd.t198 sky130_fd_pr__nfet_01v8 ad=2.34 pd=12.78 as=2.34 ps=12.78 w=6 l=2
X167 vdd.t155 vdd.t153 vdd.t154 vdd.t147 sky130_fd_pr__pfet_01v8_lvt ad=3.12 pd=16.78 as=0 ps=0 w=8 l=0.5
X168 gnd.t272 gnd.t269 gnd.t271 gnd.t270 sky130_fd_pr__nfet_01v8 ad=2.73 pd=14.78 as=0 ps=0 w=7 l=1
X169 a_n2903_n3924.t22 diffpairibias.t19 gnd.t11 gnd.t10 sky130_fd_pr__nfet_01v8 ad=2.73 pd=14.78 as=2.73 ps=14.78 w=7 l=1
X170 CSoutput.t25 a_n5644_8799.t55 vdd.t59 vdd.t54 sky130_fd_pr__pfet_01v8_lvt ad=1.32 pd=8.33 as=1.32 ps=8.33 w=8 l=0.5
X171 a_n2903_n3924.t24 diffpairibias.t20 gnd.t16 gnd.t15 sky130_fd_pr__nfet_01v8 ad=2.73 pd=14.78 as=2.73 ps=14.78 w=7 l=1
X172 output.t1 outputibias.t10 gnd.t50 gnd.t49 sky130_fd_pr__nfet_01v8 ad=2.34 pd=12.78 as=2.34 ps=12.78 w=6 l=2
X173 commonsourceibias.t35 commonsourceibias.t34 gnd.t137 gnd.t136 sky130_fd_pr__nfet_01v8 ad=1.155 pd=7.33 as=1.155 ps=7.33 w=7 l=1
X174 vdd.t58 a_n5644_8799.t56 CSoutput.t8 vdd.t25 sky130_fd_pr__pfet_01v8_lvt ad=3.12 pd=16.78 as=1.32 ps=8.33 w=8 l=0.5
X175 a_n5644_8799.t9 plus.t15 a_n2903_n3924.t0 gnd.t31 sky130_fd_pr__nfet_01v8 ad=1.155 pd=7.33 as=1.155 ps=7.33 w=7 l=0.7
X176 gnd.t268 gnd.t266 gnd.t267 gnd.t240 sky130_fd_pr__nfet_01v8 ad=2.73 pd=14.78 as=0 ps=0 w=7 l=1
X177 gnd.t265 gnd.t262 gnd.t264 gnd.t263 sky130_fd_pr__nfet_01v8_lvt ad=1.95 pd=10.78 as=0 ps=0 w=5 l=1
X178 CSoutput.t65 commonsourceibias.t91 gnd.t135 gnd.t108 sky130_fd_pr__nfet_01v8 ad=1.155 pd=7.33 as=1.155 ps=7.33 w=7 l=1
X179 CSoutput.t64 commonsourceibias.t92 gnd.t134 gnd.t88 sky130_fd_pr__nfet_01v8 ad=1.155 pd=7.33 as=1.155 ps=7.33 w=7 l=1
X180 vdd.t57 a_n5644_8799.t57 CSoutput.t17 vdd.t40 sky130_fd_pr__pfet_01v8_lvt ad=1.32 pd=8.33 as=1.32 ps=8.33 w=8 l=0.5
X181 output.t11 CSoutput.t132 vdd.t102 gnd.t59 sky130_fd_pr__nfet_01v8_lvt ad=0.825 pd=5.33 as=0.825 ps=5.33 w=5 l=1
X182 gnd.t261 gnd.t259 gnd.t260 gnd.t208 sky130_fd_pr__nfet_01v8 ad=2.73 pd=14.78 as=0 ps=0 w=7 l=1
X183 commonsourceibias.t33 commonsourceibias.t32 gnd.t133 gnd.t116 sky130_fd_pr__nfet_01v8 ad=1.155 pd=7.33 as=1.155 ps=7.33 w=7 l=1
X184 diffpairibias.t9 diffpairibias.t8 gnd.t64 gnd.t63 sky130_fd_pr__nfet_01v8 ad=2.73 pd=14.78 as=2.73 ps=14.78 w=7 l=1
X185 CSoutput.t63 commonsourceibias.t93 gnd.t132 gnd.t100 sky130_fd_pr__nfet_01v8 ad=1.155 pd=7.33 as=1.155 ps=7.33 w=7 l=1
X186 CSoutput.t62 commonsourceibias.t94 gnd.t131 gnd.t72 sky130_fd_pr__nfet_01v8 ad=1.155 pd=7.33 as=1.155 ps=7.33 w=7 l=1
X187 output.t10 CSoutput.t133 vdd.t101 gnd.t60 sky130_fd_pr__nfet_01v8_lvt ad=1.95 pd=10.78 as=0.825 ps=5.33 w=5 l=1
X188 gnd.t130 commonsourceibias.t30 commonsourceibias.t31 gnd.t129 sky130_fd_pr__nfet_01v8 ad=1.155 pd=7.33 as=1.155 ps=7.33 w=7 l=1
X189 CSoutput.t20 a_n5644_8799.t58 vdd.t56 vdd.t44 sky130_fd_pr__pfet_01v8_lvt ad=1.32 pd=8.33 as=1.32 ps=8.33 w=8 l=0.5
X190 commonsourceibias.t17 commonsourceibias.t16 gnd.t128 gnd.t127 sky130_fd_pr__nfet_01v8 ad=1.155 pd=7.33 as=1.155 ps=7.33 w=7 l=1
X191 vdd.t152 vdd.t150 vdd.t151 vdd.t132 sky130_fd_pr__pfet_01v8_lvt ad=3.12 pd=16.78 as=0 ps=0 w=8 l=0.5
X192 a_n1808_13878.t17 a_n1996_n452.t56 vdd.t22 vdd.t21 sky130_fd_pr__pfet_01v8_lvt ad=1.485 pd=9.33 as=1.485 ps=9.33 w=9 l=0.5
X193 vdd.t14 a_n1996_n452.t57 a_n1808_13878.t16 vdd.t13 sky130_fd_pr__pfet_01v8_lvt ad=1.485 pd=9.33 as=1.485 ps=9.33 w=9 l=0.5
X194 gnd.t126 commonsourceibias.t95 CSoutput.t61 gnd.t81 sky130_fd_pr__nfet_01v8 ad=1.155 pd=7.33 as=1.155 ps=7.33 w=7 l=1
X195 a_n2903_n3924.t30 minus.t16 a_n1996_n452.t7 gnd.t21 sky130_fd_pr__nfet_01v8 ad=1.155 pd=7.33 as=1.155 ps=7.33 w=7 l=0.7
X196 commonsourceibias.t15 commonsourceibias.t14 gnd.t125 gnd.t83 sky130_fd_pr__nfet_01v8 ad=1.155 pd=7.33 as=2.73 ps=14.78 w=7 l=1
X197 vdd.t149 vdd.t146 vdd.t148 vdd.t147 sky130_fd_pr__pfet_01v8_lvt ad=3.12 pd=16.78 as=0 ps=0 w=8 l=0.5
X198 gnd.t124 commonsourceibias.t12 commonsourceibias.t13 gnd.t77 sky130_fd_pr__nfet_01v8 ad=1.155 pd=7.33 as=1.155 ps=7.33 w=7 l=1
X199 a_n1996_n452.t6 minus.t17 a_n2903_n3924.t29 gnd.t20 sky130_fd_pr__nfet_01v8 ad=1.155 pd=7.33 as=1.155 ps=7.33 w=7 l=0.7
X200 gnd.t258 gnd.t256 gnd.t257 gnd.t208 sky130_fd_pr__nfet_01v8 ad=2.73 pd=14.78 as=0 ps=0 w=7 l=1
X201 diffpairibias.t7 diffpairibias.t6 gnd.t54 gnd.t53 sky130_fd_pr__nfet_01v8 ad=2.73 pd=14.78 as=2.73 ps=14.78 w=7 l=1
X202 commonsourceibias.t11 commonsourceibias.t10 gnd.t123 gnd.t114 sky130_fd_pr__nfet_01v8 ad=1.155 pd=7.33 as=2.73 ps=14.78 w=7 l=1
X203 CSoutput.t109 a_n5644_8799.t59 vdd.t55 vdd.t54 sky130_fd_pr__pfet_01v8_lvt ad=1.32 pd=8.33 as=1.32 ps=8.33 w=8 l=0.5
X204 plus.t2 gnd.t253 gnd.t255 gnd.t254 sky130_fd_pr__nfet_01v8 ad=0.165 pd=1.33 as=0.165 ps=1.33 w=1 l=0.5
X205 a_n1996_n452.t11 minus.t18 a_n2903_n3924.t34 gnd.t23 sky130_fd_pr__nfet_01v8 ad=1.155 pd=7.33 as=1.155 ps=7.33 w=7 l=0.7
X206 vdd.t53 a_n5644_8799.t60 CSoutput.t35 vdd.t25 sky130_fd_pr__pfet_01v8_lvt ad=3.12 pd=16.78 as=1.32 ps=8.33 w=8 l=0.5
X207 a_n5644_8799.t8 plus.t16 a_n2903_n3924.t8 gnd.t0 sky130_fd_pr__nfet_01v8 ad=1.155 pd=7.33 as=1.155 ps=7.33 w=7 l=0.7
X208 a_n1986_8322.t6 a_n1996_n452.t58 a_n5644_8799.t29 vdd.t88 sky130_fd_pr__pfet_01v8_lvt ad=1.485 pd=9.33 as=1.485 ps=9.33 w=9 l=0.5
X209 gnd.t252 gnd.t250 minus.t2 gnd.t251 sky130_fd_pr__nfet_01v8 ad=0.39 pd=2.78 as=0.165 ps=1.33 w=1 l=0.5
X210 gnd.t122 commonsourceibias.t96 CSoutput.t60 gnd.t81 sky130_fd_pr__nfet_01v8 ad=1.155 pd=7.33 as=1.155 ps=7.33 w=7 l=1
X211 a_n2903_n3924.t20 minus.t19 a_n1996_n452.t0 gnd.t5 sky130_fd_pr__nfet_01v8 ad=1.155 pd=7.33 as=1.155 ps=7.33 w=7 l=0.7
X212 vdd.t96 CSoutput.t134 output.t9 gnd.t3 sky130_fd_pr__nfet_01v8_lvt ad=0.825 pd=5.33 as=1.95 ps=10.78 w=5 l=1
X213 output.t0 outputibias.t11 gnd.t30 gnd.t29 sky130_fd_pr__nfet_01v8 ad=2.34 pd=12.78 as=2.34 ps=12.78 w=6 l=2
X214 vdd.t97 CSoutput.t135 output.t8 gnd.t4 sky130_fd_pr__nfet_01v8_lvt ad=0.825 pd=5.33 as=0.825 ps=5.33 w=5 l=1
X215 vdd.t52 a_n5644_8799.t61 CSoutput.t23 vdd.t51 sky130_fd_pr__pfet_01v8_lvt ad=1.32 pd=8.33 as=1.32 ps=8.33 w=8 l=0.5
X216 CSoutput.t32 a_n5644_8799.t62 vdd.t50 vdd.t31 sky130_fd_pr__pfet_01v8_lvt ad=1.32 pd=8.33 as=1.32 ps=8.33 w=8 l=0.5
X217 gnd.t121 commonsourceibias.t8 commonsourceibias.t9 gnd.t120 sky130_fd_pr__nfet_01v8 ad=1.155 pd=7.33 as=1.155 ps=7.33 w=7 l=1
X218 vdd.t49 a_n5644_8799.t63 CSoutput.t30 vdd.t40 sky130_fd_pr__pfet_01v8_lvt ad=1.32 pd=8.33 as=1.32 ps=8.33 w=8 l=0.5
X219 vdd.t112 a_n1996_n452.t59 a_n1986_8322.t14 vdd.t111 sky130_fd_pr__pfet_01v8_lvt ad=1.485 pd=9.33 as=3.51 ps=18.78 w=9 l=0.5
X220 a_n1808_13878.t15 a_n1996_n452.t60 vdd.t1 vdd.t0 sky130_fd_pr__pfet_01v8_lvt ad=3.51 pd=18.78 as=1.485 ps=9.33 w=9 l=0.5
X221 minus.t1 gnd.t247 gnd.t249 gnd.t248 sky130_fd_pr__nfet_01v8 ad=0.165 pd=1.33 as=0.165 ps=1.33 w=1 l=0.5
X222 gnd.t246 gnd.t243 gnd.t245 gnd.t244 sky130_fd_pr__nfet_01v8 ad=2.73 pd=14.78 as=0 ps=0 w=7 l=1
X223 a_n2903_n3924.t43 diffpairibias.t21 gnd.t62 gnd.t61 sky130_fd_pr__nfet_01v8 ad=2.73 pd=14.78 as=2.73 ps=14.78 w=7 l=1
X224 CSoutput.t116 a_n5644_8799.t64 vdd.t48 vdd.t44 sky130_fd_pr__pfet_01v8_lvt ad=1.32 pd=8.33 as=1.32 ps=8.33 w=8 l=0.5
X225 gnd.t119 commonsourceibias.t6 commonsourceibias.t7 gnd.t98 sky130_fd_pr__nfet_01v8 ad=1.155 pd=7.33 as=1.155 ps=7.33 w=7 l=1
X226 CSoutput.t114 a_n5644_8799.t65 vdd.t47 vdd.t42 sky130_fd_pr__pfet_01v8_lvt ad=1.32 pd=8.33 as=3.12 ps=16.78 w=8 l=0.5
X227 CSoutput.t136 a_n1986_8322.t21 sky130_fd_pr__cap_mim_m3_1 l=12 w=12
X228 vdd.t145 vdd.t143 vdd.t144 vdd.t132 sky130_fd_pr__pfet_01v8_lvt ad=3.12 pd=16.78 as=0 ps=0 w=8 l=0.5
X229 a_n5644_8799.t7 plus.t17 a_n2903_n3924.t2 gnd.t38 sky130_fd_pr__nfet_01v8 ad=1.155 pd=7.33 as=1.155 ps=7.33 w=7 l=0.7
X230 a_n1986_8322.t5 a_n1996_n452.t61 a_n5644_8799.t30 vdd.t121 sky130_fd_pr__pfet_01v8_lvt ad=1.485 pd=9.33 as=1.485 ps=9.33 w=9 l=0.5
X231 vdd.t16 a_n1996_n452.t62 a_n1986_8322.t13 vdd.t15 sky130_fd_pr__pfet_01v8_lvt ad=1.485 pd=9.33 as=1.485 ps=9.33 w=9 l=0.5
X232 vdd.t46 a_n5644_8799.t66 CSoutput.t14 vdd.t33 sky130_fd_pr__pfet_01v8_lvt ad=1.32 pd=8.33 as=1.32 ps=8.33 w=8 l=0.5
X233 CSoutput.t7 a_n5644_8799.t67 vdd.t45 vdd.t44 sky130_fd_pr__pfet_01v8_lvt ad=1.32 pd=8.33 as=1.32 ps=8.33 w=8 l=0.5
X234 a_n2903_n3924.t4 plus.t18 a_n5644_8799.t6 gnd.t19 sky130_fd_pr__nfet_01v8 ad=2.73 pd=14.78 as=1.155 ps=7.33 w=7 l=0.7
X235 gnd.t118 commonsourceibias.t4 commonsourceibias.t5 gnd.t75 sky130_fd_pr__nfet_01v8 ad=1.155 pd=7.33 as=1.155 ps=7.33 w=7 l=1
X236 CSoutput.t59 commonsourceibias.t97 gnd.t117 gnd.t116 sky130_fd_pr__nfet_01v8 ad=1.155 pd=7.33 as=1.155 ps=7.33 w=7 l=1
X237 vdd.t104 CSoutput.t137 output.t7 gnd.t26 sky130_fd_pr__nfet_01v8_lvt ad=0.825 pd=5.33 as=0.825 ps=5.33 w=5 l=1
X238 diffpairibias.t5 diffpairibias.t4 gnd.t44 gnd.t43 sky130_fd_pr__nfet_01v8 ad=2.73 pd=14.78 as=2.73 ps=14.78 w=7 l=1
X239 output.t6 CSoutput.t138 vdd.t93 gnd.t27 sky130_fd_pr__nfet_01v8_lvt ad=0.825 pd=5.33 as=0.825 ps=5.33 w=5 l=1
X240 vdd.t142 vdd.t139 vdd.t141 vdd.t140 sky130_fd_pr__pfet_01v8_lvt ad=3.51 pd=18.78 as=0 ps=0 w=9 l=0.5
X241 vdd.t138 vdd.t135 vdd.t137 vdd.t136 sky130_fd_pr__pfet_01v8_lvt ad=3.12 pd=16.78 as=0 ps=0 w=8 l=0.5
X242 gnd.t242 gnd.t239 gnd.t241 gnd.t240 sky130_fd_pr__nfet_01v8 ad=2.73 pd=14.78 as=0 ps=0 w=7 l=1
X243 a_n1808_13878.t2 a_n1996_n452.t16 a_n1996_n452.t17 vdd.t12 sky130_fd_pr__pfet_01v8_lvt ad=1.485 pd=9.33 as=1.485 ps=9.33 w=9 l=0.5
X244 CSoutput.t58 commonsourceibias.t98 gnd.t115 gnd.t114 sky130_fd_pr__nfet_01v8 ad=1.155 pd=7.33 as=2.73 ps=14.78 w=7 l=1
X245 a_n1986_8322.t4 a_n1996_n452.t63 a_n5644_8799.t31 vdd.t120 sky130_fd_pr__pfet_01v8_lvt ad=1.485 pd=9.33 as=1.485 ps=9.33 w=9 l=0.5
X246 gnd.t113 commonsourceibias.t99 CSoutput.t57 gnd.t93 sky130_fd_pr__nfet_01v8 ad=1.155 pd=7.33 as=1.155 ps=7.33 w=7 l=1
X247 gnd.t238 gnd.t236 gnd.t237 gnd.t208 sky130_fd_pr__nfet_01v8 ad=2.73 pd=14.78 as=0 ps=0 w=7 l=1
X248 CSoutput.t31 a_n5644_8799.t68 vdd.t43 vdd.t42 sky130_fd_pr__pfet_01v8_lvt ad=1.32 pd=8.33 as=3.12 ps=16.78 w=8 l=0.5
X249 a_n1986_8322.t12 a_n1996_n452.t64 vdd.t8 vdd.t7 sky130_fd_pr__pfet_01v8_lvt ad=3.51 pd=18.78 as=1.485 ps=9.33 w=9 l=0.5