* NGSPICE file created from opamp400.ext - technology: sky130A

.subckt opamp400 gnd CSoutput output vdd plus minus commonsourceibias outputibias
+ diffpairibias
X0 CSoutput.t178 a_n6972_8799.t36 vdd.t223 vdd.t189 sky130_fd_pr__pfet_01v8 ad=1.32 pd=8.33 as=1.32 ps=8.33 w=8 l=0.5
X1 a_n2140_13878.t23 a_n2318_13878.t27 a_n2318_13878.t28 vdd.t3 sky130_fd_pr__pfet_01v8 ad=1.485 pd=9.33 as=1.485 ps=9.33 w=9 l=0.5
X2 CSoutput.t10 commonsourceibias.t80 gnd.t211 gnd.t123 sky130_fd_pr__nfet_01v8 ad=1.155 pd=7.33 as=1.155 ps=7.33 w=7 l=1
X3 a_n2140_13878.t7 a_n2318_13878.t52 vdd.t233 vdd.t232 sky130_fd_pr__pfet_01v8 ad=1.485 pd=9.33 as=1.485 ps=9.33 w=9 l=0.5
X4 vdd.t222 a_n6972_8799.t37 CSoutput.t177 vdd.t184 sky130_fd_pr__pfet_01v8 ad=1.32 pd=8.33 as=1.32 ps=8.33 w=8 l=0.5
X5 vdd.t101 vdd.t99 vdd.t100 vdd.t43 sky130_fd_pr__pfet_01v8 ad=3.12 pd=16.78 as=0 ps=0 w=8 l=0.5
X6 gnd.t210 commonsourceibias.t81 CSoutput.t186 gnd.t109 sky130_fd_pr__nfet_01v8 ad=1.155 pd=7.33 as=1.155 ps=7.33 w=7 l=1
X7 CSoutput.t55 commonsourceibias.t82 gnd.t209 gnd.t80 sky130_fd_pr__nfet_01v8 ad=1.155 pd=7.33 as=1.155 ps=7.33 w=7 l=1
X8 CSoutput.t100 commonsourceibias.t83 gnd.t208 gnd.t14 sky130_fd_pr__nfet_01v8 ad=1.155 pd=7.33 as=1.155 ps=7.33 w=7 l=1
X9 CSoutput.t176 a_n6972_8799.t38 vdd.t221 vdd.t134 sky130_fd_pr__pfet_01v8 ad=1.32 pd=8.33 as=1.32 ps=8.33 w=8 l=0.5
X10 gnd.t207 commonsourceibias.t84 CSoutput.t93 gnd.t127 sky130_fd_pr__nfet_01v8 ad=1.155 pd=7.33 as=1.155 ps=7.33 w=7 l=1
X11 CSoutput.t192 a_n2318_8322.t3 sky130_fd_pr__cap_mim_m3_1 l=12 w=12
X12 a_n2318_8322.t27 a_n2318_13878.t53 a_n6972_8799.t19 vdd.t0 sky130_fd_pr__pfet_01v8 ad=1.485 pd=9.33 as=1.485 ps=9.33 w=9 l=0.5
X13 vdd.t121 CSoutput.t193 output.t17 gnd.t360 sky130_fd_pr__nfet_01v8 ad=0.825 pd=5.33 as=0.825 ps=5.33 w=5 l=1
X14 CSoutput.t175 a_n6972_8799.t39 vdd.t220 vdd.t162 sky130_fd_pr__pfet_01v8 ad=1.32 pd=8.33 as=1.32 ps=8.33 w=8 l=0.5
X15 CSoutput.t26 commonsourceibias.t85 gnd.t206 gnd.t57 sky130_fd_pr__nfet_01v8 ad=1.155 pd=7.33 as=1.155 ps=7.33 w=7 l=1
X16 gnd.t332 gnd.t330 plus.t4 gnd.t331 sky130_fd_pr__nfet_01v8 ad=0.39 pd=2.78 as=0.165 ps=1.33 w=1 l=0.5
X17 gnd.t205 commonsourceibias.t86 CSoutput.t102 gnd.t27 sky130_fd_pr__nfet_01v8 ad=1.155 pd=7.33 as=1.155 ps=7.33 w=7 l=1
X18 CSoutput.t66 commonsourceibias.t87 gnd.t204 gnd.t107 sky130_fd_pr__nfet_01v8 ad=1.155 pd=7.33 as=1.155 ps=7.33 w=7 l=1
X19 a_n6972_8799.t22 plus.t5 a_n2903_n3924.t34 gnd.t3 sky130_fd_pr__nfet_01v8 ad=1.155 pd=7.33 as=1.155 ps=7.33 w=7 l=0.5
X20 gnd.t203 commonsourceibias.t88 CSoutput.t65 gnd.t54 sky130_fd_pr__nfet_01v8 ad=2.73 pd=14.78 as=1.155 ps=7.33 w=7 l=1
X21 vdd.t219 a_n6972_8799.t40 CSoutput.t174 vdd.t182 sky130_fd_pr__pfet_01v8 ad=1.32 pd=8.33 as=1.32 ps=8.33 w=8 l=0.5
X22 CSoutput.t11 commonsourceibias.t89 gnd.t202 gnd.t107 sky130_fd_pr__nfet_01v8 ad=1.155 pd=7.33 as=1.155 ps=7.33 w=7 l=1
X23 minus.t4 gnd.t327 gnd.t329 gnd.t328 sky130_fd_pr__nfet_01v8 ad=0.165 pd=1.33 as=0.165 ps=1.33 w=1 l=0.5
X24 CSoutput.t31 commonsourceibias.t90 gnd.t201 gnd.t129 sky130_fd_pr__nfet_01v8 ad=1.155 pd=7.33 as=1.155 ps=7.33 w=7 l=1
X25 gnd.t200 commonsourceibias.t91 CSoutput.t88 gnd.t89 sky130_fd_pr__nfet_01v8 ad=1.155 pd=7.33 as=1.155 ps=7.33 w=7 l=1
X26 gnd.t326 gnd.t323 gnd.t325 gnd.t324 sky130_fd_pr__nfet_01v8 ad=2.34 pd=12.78 as=0 ps=0 w=6 l=2
X27 gnd.t322 gnd.t320 gnd.t321 gnd.t234 sky130_fd_pr__nfet_01v8 ad=2.73 pd=14.78 as=0 ps=0 w=7 l=1
X28 commonsourceibias.t29 commonsourceibias.t28 gnd.t199 gnd.t57 sky130_fd_pr__nfet_01v8 ad=1.155 pd=7.33 as=1.155 ps=7.33 w=7 l=1
X29 CSoutput.t71 commonsourceibias.t92 gnd.t198 gnd.t14 sky130_fd_pr__nfet_01v8 ad=1.155 pd=7.33 as=1.155 ps=7.33 w=7 l=1
X30 gnd.t319 gnd.t317 gnd.t318 gnd.t230 sky130_fd_pr__nfet_01v8 ad=2.73 pd=14.78 as=0 ps=0 w=7 l=1
X31 a_n6972_8799.t25 a_n2318_13878.t54 a_n2318_8322.t26 vdd.t102 sky130_fd_pr__pfet_01v8 ad=1.485 pd=9.33 as=3.51 ps=18.78 w=9 l=0.5
X32 vdd.t218 a_n6972_8799.t41 CSoutput.t173 vdd.t196 sky130_fd_pr__pfet_01v8 ad=1.32 pd=8.33 as=1.32 ps=8.33 w=8 l=0.5
X33 CSoutput.t172 a_n6972_8799.t42 vdd.t217 vdd.t164 sky130_fd_pr__pfet_01v8 ad=1.32 pd=8.33 as=1.32 ps=8.33 w=8 l=0.5
X34 a_n6972_8799.t13 a_n2318_13878.t55 a_n2318_8322.t25 vdd.t11 sky130_fd_pr__pfet_01v8 ad=1.485 pd=9.33 as=3.51 ps=18.78 w=9 l=0.5
X35 CSoutput.t69 commonsourceibias.t93 gnd.t197 gnd.t123 sky130_fd_pr__nfet_01v8 ad=1.155 pd=7.33 as=1.155 ps=7.33 w=7 l=1
X36 gnd.t196 commonsourceibias.t94 CSoutput.t33 gnd.t96 sky130_fd_pr__nfet_01v8 ad=1.155 pd=7.33 as=1.155 ps=7.33 w=7 l=1
X37 gnd.t316 gnd.t314 gnd.t315 gnd.t242 sky130_fd_pr__nfet_01v8 ad=2.73 pd=14.78 as=0 ps=0 w=7 l=1
X38 a_n6972_8799.t30 plus.t6 a_n2903_n3924.t33 gnd.t6 sky130_fd_pr__nfet_01v8 ad=1.155 pd=7.33 as=1.155 ps=7.33 w=7 l=0.5
X39 CSoutput.t57 commonsourceibias.t95 gnd.t195 gnd.t66 sky130_fd_pr__nfet_01v8 ad=1.155 pd=7.33 as=1.155 ps=7.33 w=7 l=1
X40 CSoutput.t58 commonsourceibias.t96 gnd.t194 gnd.t77 sky130_fd_pr__nfet_01v8 ad=1.155 pd=7.33 as=1.155 ps=7.33 w=7 l=1
X41 vdd.t98 vdd.t96 vdd.t97 vdd.t27 sky130_fd_pr__pfet_01v8 ad=3.51 pd=18.78 as=0 ps=0 w=9 l=0.5
X42 CSoutput.t73 commonsourceibias.t97 gnd.t193 gnd.t91 sky130_fd_pr__nfet_01v8 ad=1.155 pd=7.33 as=1.155 ps=7.33 w=7 l=1
X43 CSoutput.t171 a_n6972_8799.t43 vdd.t216 vdd.t189 sky130_fd_pr__pfet_01v8 ad=1.32 pd=8.33 as=1.32 ps=8.33 w=8 l=0.5
X44 CSoutput.t170 a_n6972_8799.t44 vdd.t215 vdd.t156 sky130_fd_pr__pfet_01v8 ad=1.32 pd=8.33 as=3.12 ps=16.78 w=8 l=0.5
X45 a_n2903_n3924.t12 diffpairibias.t16 gnd.t371 gnd.t370 sky130_fd_pr__nfet_01v8 ad=2.73 pd=14.78 as=2.73 ps=14.78 w=7 l=1
X46 gnd.t192 commonsourceibias.t98 CSoutput.t191 gnd.t29 sky130_fd_pr__nfet_01v8 ad=2.73 pd=14.78 as=1.155 ps=7.33 w=7 l=1
X47 a_n2903_n3924.t46 minus.t5 a_n2318_13878.t51 gnd.t381 sky130_fd_pr__nfet_01v8 ad=1.155 pd=7.33 as=1.155 ps=7.33 w=7 l=0.5
X48 gnd.t191 commonsourceibias.t99 CSoutput.t187 gnd.t62 sky130_fd_pr__nfet_01v8 ad=1.155 pd=7.33 as=1.155 ps=7.33 w=7 l=1
X49 vdd.t95 vdd.t93 vdd.t94 vdd.t43 sky130_fd_pr__pfet_01v8 ad=3.12 pd=16.78 as=0 ps=0 w=8 l=0.5
X50 a_n2903_n3924.t32 plus.t7 a_n6972_8799.t35 gnd.t380 sky130_fd_pr__nfet_01v8 ad=1.155 pd=7.33 as=1.155 ps=7.33 w=7 l=0.5
X51 CSoutput.t27 commonsourceibias.t100 gnd.t190 gnd.t118 sky130_fd_pr__nfet_01v8 ad=1.155 pd=7.33 as=1.155 ps=7.33 w=7 l=1
X52 CSoutput.t94 commonsourceibias.t101 gnd.t189 gnd.t39 sky130_fd_pr__nfet_01v8 ad=1.155 pd=7.33 as=2.73 ps=14.78 w=7 l=1
X53 a_n2318_13878.t9 minus.t6 a_n2903_n3924.t11 gnd.t361 sky130_fd_pr__nfet_01v8 ad=1.155 pd=7.33 as=1.155 ps=7.33 w=7 l=0.5
X54 gnd.t185 commonsourceibias.t56 commonsourceibias.t57 gnd.t59 sky130_fd_pr__nfet_01v8 ad=1.155 pd=7.33 as=1.155 ps=7.33 w=7 l=1
X55 CSoutput.t76 commonsourceibias.t102 gnd.t188 gnd.t91 sky130_fd_pr__nfet_01v8 ad=1.155 pd=7.33 as=1.155 ps=7.33 w=7 l=1
X56 a_n2903_n3924.t31 plus.t8 a_n6972_8799.t32 gnd.t382 sky130_fd_pr__nfet_01v8 ad=1.155 pd=7.33 as=1.155 ps=7.33 w=7 l=0.5
X57 a_n2903_n3924.t9 minus.t7 a_n2318_13878.t7 gnd.t368 sky130_fd_pr__nfet_01v8 ad=1.155 pd=7.33 as=1.155 ps=7.33 w=7 l=0.5
X58 CSoutput.t169 a_n6972_8799.t45 vdd.t214 vdd.t134 sky130_fd_pr__pfet_01v8 ad=1.32 pd=8.33 as=1.32 ps=8.33 w=8 l=0.5
X59 gnd.t187 commonsourceibias.t103 CSoutput.t77 gnd.t114 sky130_fd_pr__nfet_01v8 ad=1.155 pd=7.33 as=1.155 ps=7.33 w=7 l=1
X60 a_n2140_13878.t22 a_n2318_13878.t33 a_n2318_13878.t34 vdd.t4 sky130_fd_pr__pfet_01v8 ad=1.485 pd=9.33 as=1.485 ps=9.33 w=9 l=0.5
X61 CSoutput.t28 commonsourceibias.t104 gnd.t186 gnd.t48 sky130_fd_pr__nfet_01v8 ad=1.155 pd=7.33 as=1.155 ps=7.33 w=7 l=1
X62 CSoutput.t105 commonsourceibias.t105 gnd.t184 gnd.t72 sky130_fd_pr__nfet_01v8 ad=1.155 pd=7.33 as=1.155 ps=7.33 w=7 l=1
X63 gnd.t183 commonsourceibias.t106 CSoutput.t22 gnd.t114 sky130_fd_pr__nfet_01v8 ad=1.155 pd=7.33 as=1.155 ps=7.33 w=7 l=1
X64 vdd.t122 CSoutput.t194 output.t16 gnd.t359 sky130_fd_pr__nfet_01v8 ad=0.825 pd=5.33 as=0.825 ps=5.33 w=5 l=1
X65 a_n2318_13878.t18 a_n2318_13878.t17 a_n2140_13878.t21 vdd.t10 sky130_fd_pr__pfet_01v8 ad=1.485 pd=9.33 as=1.485 ps=9.33 w=9 l=0.5
X66 CSoutput.t42 commonsourceibias.t107 gnd.t182 gnd.t31 sky130_fd_pr__nfet_01v8 ad=1.155 pd=7.33 as=1.155 ps=7.33 w=7 l=1
X67 gnd.t181 commonsourceibias.t108 CSoutput.t74 gnd.t109 sky130_fd_pr__nfet_01v8 ad=1.155 pd=7.33 as=1.155 ps=7.33 w=7 l=1
X68 CSoutput.t195 a_n2318_8322.t2 sky130_fd_pr__cap_mim_m3_1 l=12 w=12
X69 CSoutput.t168 a_n6972_8799.t46 vdd.t213 vdd.t162 sky130_fd_pr__pfet_01v8 ad=1.32 pd=8.33 as=1.32 ps=8.33 w=8 l=0.5
X70 vdd.t92 vdd.t90 vdd.t91 vdd.t73 sky130_fd_pr__pfet_01v8 ad=3.51 pd=18.78 as=0 ps=0 w=9 l=0.5
X71 gnd.t180 commonsourceibias.t54 commonsourceibias.t55 gnd.t20 sky130_fd_pr__nfet_01v8 ad=1.155 pd=7.33 as=1.155 ps=7.33 w=7 l=1
X72 a_n2903_n3924.t8 minus.t8 a_n2318_13878.t6 gnd.t341 sky130_fd_pr__nfet_01v8 ad=1.155 pd=7.33 as=1.155 ps=7.33 w=7 l=0.5
X73 CSoutput.t12 commonsourceibias.t109 gnd.t179 gnd.t107 sky130_fd_pr__nfet_01v8 ad=1.155 pd=7.33 as=1.155 ps=7.33 w=7 l=1
X74 vdd.t210 a_n6972_8799.t47 CSoutput.t167 vdd.t182 sky130_fd_pr__pfet_01v8 ad=1.32 pd=8.33 as=1.32 ps=8.33 w=8 l=0.5
X75 gnd.t313 gnd.t311 gnd.t312 gnd.t242 sky130_fd_pr__nfet_01v8 ad=2.73 pd=14.78 as=0 ps=0 w=7 l=1
X76 CSoutput.t188 commonsourceibias.t110 gnd.t178 gnd.t72 sky130_fd_pr__nfet_01v8 ad=1.155 pd=7.33 as=1.155 ps=7.33 w=7 l=1
X77 diffpairibias.t15 diffpairibias.t14 gnd.t398 gnd.t397 sky130_fd_pr__nfet_01v8 ad=2.73 pd=14.78 as=2.73 ps=14.78 w=7 l=1
X78 gnd.t177 commonsourceibias.t111 CSoutput.t23 gnd.t12 sky130_fd_pr__nfet_01v8 ad=1.155 pd=7.33 as=1.155 ps=7.33 w=7 l=1
X79 CSoutput.t3 commonsourceibias.t112 gnd.t176 gnd.t39 sky130_fd_pr__nfet_01v8 ad=1.155 pd=7.33 as=2.73 ps=14.78 w=7 l=1
X80 CSoutput.t18 commonsourceibias.t113 gnd.t175 gnd.t86 sky130_fd_pr__nfet_01v8 ad=1.155 pd=7.33 as=1.155 ps=7.33 w=7 l=1
X81 gnd.t174 commonsourceibias.t114 CSoutput.t13 gnd.t33 sky130_fd_pr__nfet_01v8 ad=1.155 pd=7.33 as=1.155 ps=7.33 w=7 l=1
X82 a_n6972_8799.t6 a_n2318_13878.t56 a_n2318_8322.t24 vdd.t5 sky130_fd_pr__pfet_01v8 ad=1.485 pd=9.33 as=1.485 ps=9.33 w=9 l=0.5
X83 gnd.t310 gnd.t308 gnd.t309 gnd.t238 sky130_fd_pr__nfet_01v8 ad=2.73 pd=14.78 as=0 ps=0 w=7 l=0.5
X84 gnd.t173 commonsourceibias.t115 CSoutput.t34 gnd.t69 sky130_fd_pr__nfet_01v8 ad=1.155 pd=7.33 as=1.155 ps=7.33 w=7 l=1
X85 CSoutput.t166 a_n6972_8799.t48 vdd.t212 vdd.t186 sky130_fd_pr__pfet_01v8 ad=1.32 pd=8.33 as=1.32 ps=8.33 w=8 l=0.5
X86 gnd.t172 commonsourceibias.t116 CSoutput.t35 gnd.t25 sky130_fd_pr__nfet_01v8 ad=1.155 pd=7.33 as=1.155 ps=7.33 w=7 l=1
X87 gnd.t307 gnd.t306 plus.t3 gnd.t238 sky130_fd_pr__nfet_01v8 ad=0.165 pd=1.33 as=0.165 ps=1.33 w=1 l=0.5
X88 vdd.t209 a_n6972_8799.t49 CSoutput.t165 vdd.t140 sky130_fd_pr__pfet_01v8 ad=1.32 pd=8.33 as=1.32 ps=8.33 w=8 l=0.5
X89 minus.t3 gnd.t303 gnd.t305 gnd.t304 sky130_fd_pr__nfet_01v8 ad=0.165 pd=1.33 as=0.165 ps=1.33 w=1 l=0.5
X90 CSoutput.t59 commonsourceibias.t117 gnd.t171 gnd.t86 sky130_fd_pr__nfet_01v8 ad=1.155 pd=7.33 as=1.155 ps=7.33 w=7 l=1
X91 diffpairibias.t13 diffpairibias.t12 gnd.t363 gnd.t362 sky130_fd_pr__nfet_01v8 ad=2.73 pd=14.78 as=2.73 ps=14.78 w=7 l=1
X92 CSoutput.t164 a_n6972_8799.t50 vdd.t211 vdd.t147 sky130_fd_pr__pfet_01v8 ad=1.32 pd=8.33 as=3.12 ps=16.78 w=8 l=0.5
X93 gnd.t170 commonsourceibias.t44 commonsourceibias.t45 gnd.t74 sky130_fd_pr__nfet_01v8 ad=1.155 pd=7.33 as=1.155 ps=7.33 w=7 l=1
X94 gnd.t169 commonsourceibias.t118 CSoutput.t89 gnd.t89 sky130_fd_pr__nfet_01v8 ad=1.155 pd=7.33 as=1.155 ps=7.33 w=7 l=1
X95 CSoutput.t43 commonsourceibias.t119 gnd.t168 gnd.t31 sky130_fd_pr__nfet_01v8 ad=1.155 pd=7.33 as=1.155 ps=7.33 w=7 l=1
X96 gnd.t167 commonsourceibias.t120 CSoutput.t75 gnd.t74 sky130_fd_pr__nfet_01v8 ad=1.155 pd=7.33 as=1.155 ps=7.33 w=7 l=1
X97 CSoutput.t14 commonsourceibias.t121 gnd.t166 gnd.t129 sky130_fd_pr__nfet_01v8 ad=1.155 pd=7.33 as=1.155 ps=7.33 w=7 l=1
X98 CSoutput.t189 commonsourceibias.t122 gnd.t165 gnd.t52 sky130_fd_pr__nfet_01v8 ad=1.155 pd=7.33 as=1.155 ps=7.33 w=7 l=1
X99 vdd.t208 a_n6972_8799.t51 CSoutput.t163 vdd.t132 sky130_fd_pr__pfet_01v8 ad=1.32 pd=8.33 as=1.32 ps=8.33 w=8 l=0.5
X100 CSoutput.t90 commonsourceibias.t123 gnd.t164 gnd.t41 sky130_fd_pr__nfet_01v8 ad=1.155 pd=7.33 as=1.155 ps=7.33 w=7 l=1
X101 CSoutput.t162 a_n6972_8799.t52 vdd.t207 vdd.t198 sky130_fd_pr__pfet_01v8 ad=1.32 pd=8.33 as=1.32 ps=8.33 w=8 l=0.5
X102 gnd.t163 commonsourceibias.t124 CSoutput.t60 gnd.t96 sky130_fd_pr__nfet_01v8 ad=1.155 pd=7.33 as=1.155 ps=7.33 w=7 l=1
X103 CSoutput.t161 a_n6972_8799.t53 vdd.t206 vdd.t156 sky130_fd_pr__pfet_01v8 ad=1.32 pd=8.33 as=3.12 ps=16.78 w=8 l=0.5
X104 CSoutput.t160 a_n6972_8799.t54 vdd.t202 vdd.t198 sky130_fd_pr__pfet_01v8 ad=1.32 pd=8.33 as=1.32 ps=8.33 w=8 l=0.5
X105 gnd.t162 commonsourceibias.t32 commonsourceibias.t33 gnd.t45 sky130_fd_pr__nfet_01v8 ad=1.155 pd=7.33 as=1.155 ps=7.33 w=7 l=1
X106 gnd.t161 commonsourceibias.t30 commonsourceibias.t31 gnd.t29 sky130_fd_pr__nfet_01v8 ad=2.73 pd=14.78 as=1.155 ps=7.33 w=7 l=1
X107 CSoutput.t103 commonsourceibias.t125 gnd.t160 gnd.t118 sky130_fd_pr__nfet_01v8 ad=1.155 pd=7.33 as=1.155 ps=7.33 w=7 l=1
X108 vdd.t123 CSoutput.t196 output.t15 gnd.t358 sky130_fd_pr__nfet_01v8 ad=0.825 pd=5.33 as=0.825 ps=5.33 w=5 l=1
X109 a_n6972_8799.t8 plus.t9 a_n2903_n3924.t30 gnd.t333 sky130_fd_pr__nfet_01v8 ad=1.155 pd=7.33 as=1.155 ps=7.33 w=7 l=0.5
X110 output.t14 CSoutput.t197 vdd.t124 gnd.t357 sky130_fd_pr__nfet_01v8 ad=0.825 pd=5.33 as=0.825 ps=5.33 w=5 l=1
X111 CSoutput.t68 commonsourceibias.t126 gnd.t159 gnd.t48 sky130_fd_pr__nfet_01v8 ad=1.155 pd=7.33 as=1.155 ps=7.33 w=7 l=1
X112 gnd.t158 commonsourceibias.t127 CSoutput.t67 gnd.t74 sky130_fd_pr__nfet_01v8 ad=1.155 pd=7.33 as=1.155 ps=7.33 w=7 l=1
X113 a_n2903_n3924.t42 diffpairibias.t17 gnd.t388 gnd.t387 sky130_fd_pr__nfet_01v8 ad=2.73 pd=14.78 as=2.73 ps=14.78 w=7 l=1
X114 CSoutput.t198 a_n2318_8322.t0 sky130_fd_pr__cap_mim_m3_1 l=12 w=12
X115 gnd.t302 gnd.t300 gnd.t301 gnd.t226 sky130_fd_pr__nfet_01v8 ad=2.73 pd=14.78 as=0 ps=0 w=7 l=1
X116 a_n2903_n3924.t45 minus.t9 a_n2318_13878.t50 gnd.t342 sky130_fd_pr__nfet_01v8 ad=1.155 pd=7.33 as=1.155 ps=7.33 w=7 l=0.5
X117 a_n2318_13878.t14 a_n2318_13878.t13 a_n2140_13878.t20 vdd.t0 sky130_fd_pr__pfet_01v8 ad=1.485 pd=9.33 as=1.485 ps=9.33 w=9 l=0.5
X118 vdd.t205 a_n6972_8799.t55 CSoutput.t159 vdd.t166 sky130_fd_pr__pfet_01v8 ad=1.32 pd=8.33 as=1.32 ps=8.33 w=8 l=0.5
X119 vdd.t204 a_n6972_8799.t56 CSoutput.t158 vdd.t196 sky130_fd_pr__pfet_01v8 ad=1.32 pd=8.33 as=1.32 ps=8.33 w=8 l=0.5
X120 gnd.t157 commonsourceibias.t128 CSoutput.t15 gnd.t62 sky130_fd_pr__nfet_01v8 ad=1.155 pd=7.33 as=1.155 ps=7.33 w=7 l=1
X121 gnd.t299 gnd.t296 gnd.t298 gnd.t297 sky130_fd_pr__nfet_01v8 ad=1.95 pd=10.78 as=0 ps=0 w=5 l=1
X122 a_n6972_8799.t2 a_n2318_13878.t57 a_n2318_8322.t23 vdd.t2 sky130_fd_pr__pfet_01v8 ad=1.485 pd=9.33 as=1.485 ps=9.33 w=9 l=0.5
X123 a_n2318_13878.t30 a_n2318_13878.t29 a_n2140_13878.t19 vdd.t1 sky130_fd_pr__pfet_01v8 ad=3.51 pd=18.78 as=1.485 ps=9.33 w=9 l=0.5
X124 a_n2318_13878.t49 minus.t10 a_n2903_n3924.t44 gnd.t377 sky130_fd_pr__nfet_01v8 ad=1.155 pd=7.33 as=1.155 ps=7.33 w=7 l=0.5
X125 gnd.t295 gnd.t293 gnd.t294 gnd.t226 sky130_fd_pr__nfet_01v8 ad=2.73 pd=14.78 as=0 ps=0 w=7 l=1
X126 a_n2903_n3924.t29 plus.t10 a_n6972_8799.t1 gnd.t0 sky130_fd_pr__nfet_01v8 ad=1.155 pd=7.33 as=1.155 ps=7.33 w=7 l=0.5
X127 gnd.t156 commonsourceibias.t129 CSoutput.t38 gnd.t12 sky130_fd_pr__nfet_01v8 ad=1.155 pd=7.33 as=1.155 ps=7.33 w=7 l=1
X128 CSoutput.t2 commonsourceibias.t130 gnd.t155 gnd.t77 sky130_fd_pr__nfet_01v8 ad=1.155 pd=7.33 as=1.155 ps=7.33 w=7 l=1
X129 commonsourceibias.t19 commonsourceibias.t18 gnd.t153 gnd.t48 sky130_fd_pr__nfet_01v8 ad=1.155 pd=7.33 as=1.155 ps=7.33 w=7 l=1
X130 vdd.t203 a_n6972_8799.t57 CSoutput.t157 vdd.t144 sky130_fd_pr__pfet_01v8 ad=1.32 pd=8.33 as=1.32 ps=8.33 w=8 l=0.5
X131 CSoutput.t156 a_n6972_8799.t58 vdd.t201 vdd.t169 sky130_fd_pr__pfet_01v8 ad=1.32 pd=8.33 as=1.32 ps=8.33 w=8 l=0.5
X132 gnd.t154 commonsourceibias.t131 CSoutput.t16 gnd.t22 sky130_fd_pr__nfet_01v8 ad=1.155 pd=7.33 as=1.155 ps=7.33 w=7 l=1
X133 a_n2903_n3924.t5 minus.t11 a_n2318_13878.t4 gnd.t8 sky130_fd_pr__nfet_01v8 ad=2.73 pd=14.78 as=1.155 ps=7.33 w=7 l=0.5
X134 gnd.t152 commonsourceibias.t132 CSoutput.t97 gnd.t37 sky130_fd_pr__nfet_01v8 ad=1.155 pd=7.33 as=1.155 ps=7.33 w=7 l=1
X135 vdd.t89 vdd.t87 vdd.t88 vdd.t39 sky130_fd_pr__pfet_01v8 ad=3.12 pd=16.78 as=0 ps=0 w=8 l=0.5
X136 vdd.t86 vdd.t84 vdd.t85 vdd.t77 sky130_fd_pr__pfet_01v8 ad=3.51 pd=18.78 as=0 ps=0 w=9 l=0.5
X137 gnd.t151 commonsourceibias.t16 commonsourceibias.t17 gnd.t27 sky130_fd_pr__nfet_01v8 ad=1.155 pd=7.33 as=1.155 ps=7.33 w=7 l=1
X138 gnd.t150 commonsourceibias.t133 CSoutput.t70 gnd.t59 sky130_fd_pr__nfet_01v8 ad=1.155 pd=7.33 as=1.155 ps=7.33 w=7 l=1
X139 CSoutput.t155 a_n6972_8799.t59 vdd.t200 vdd.t147 sky130_fd_pr__pfet_01v8 ad=1.32 pd=8.33 as=3.12 ps=16.78 w=8 l=0.5
X140 vdd.t83 vdd.t80 vdd.t82 vdd.t81 sky130_fd_pr__pfet_01v8 ad=3.51 pd=18.78 as=0 ps=0 w=9 l=0.5
X141 gnd.t292 gnd.t290 gnd.t291 gnd.t230 sky130_fd_pr__nfet_01v8 ad=2.73 pd=14.78 as=0 ps=0 w=7 l=1
X142 vdd.t111 a_n2318_13878.t58 a_n2318_8322.t11 vdd.t110 sky130_fd_pr__pfet_01v8 ad=1.485 pd=9.33 as=1.485 ps=9.33 w=9 l=0.5
X143 a_n2318_13878.t20 a_n2318_13878.t19 a_n2140_13878.t18 vdd.t18 sky130_fd_pr__pfet_01v8 ad=3.51 pd=18.78 as=1.485 ps=9.33 w=9 l=0.5
X144 CSoutput.t184 commonsourceibias.t134 gnd.t149 gnd.t50 sky130_fd_pr__nfet_01v8 ad=1.155 pd=7.33 as=2.73 ps=14.78 w=7 l=1
X145 a_n2318_8322.t10 a_n2318_13878.t59 vdd.t231 vdd.t230 sky130_fd_pr__pfet_01v8 ad=1.485 pd=9.33 as=1.485 ps=9.33 w=9 l=0.5
X146 gnd.t148 commonsourceibias.t135 CSoutput.t24 gnd.t89 sky130_fd_pr__nfet_01v8 ad=1.155 pd=7.33 as=1.155 ps=7.33 w=7 l=1
X147 a_n2903_n3924.t43 diffpairibias.t18 gnd.t392 gnd.t391 sky130_fd_pr__nfet_01v8 ad=2.73 pd=14.78 as=2.73 ps=14.78 w=7 l=1
X148 output.t13 CSoutput.t199 vdd.t125 gnd.t356 sky130_fd_pr__nfet_01v8 ad=0.825 pd=5.33 as=0.825 ps=5.33 w=5 l=1
X149 CSoutput.t154 a_n6972_8799.t60 vdd.t199 vdd.t198 sky130_fd_pr__pfet_01v8 ad=1.32 pd=8.33 as=1.32 ps=8.33 w=8 l=0.5
X150 vdd.t226 CSoutput.t200 output.t12 gnd.t355 sky130_fd_pr__nfet_01v8 ad=0.825 pd=5.33 as=0.825 ps=5.33 w=5 l=1
X151 gnd.t147 commonsourceibias.t136 CSoutput.t62 gnd.t114 sky130_fd_pr__nfet_01v8 ad=1.155 pd=7.33 as=1.155 ps=7.33 w=7 l=1
X152 a_n2318_13878.t5 minus.t12 a_n2903_n3924.t7 gnd.t335 sky130_fd_pr__nfet_01v8 ad=1.155 pd=7.33 as=1.155 ps=7.33 w=7 l=0.5
X153 gnd.t142 commonsourceibias.t60 commonsourceibias.t61 gnd.t33 sky130_fd_pr__nfet_01v8 ad=1.155 pd=7.33 as=1.155 ps=7.33 w=7 l=1
X154 CSoutput.t39 commonsourceibias.t137 gnd.t146 gnd.t129 sky130_fd_pr__nfet_01v8 ad=1.155 pd=7.33 as=1.155 ps=7.33 w=7 l=1
X155 gnd.t145 commonsourceibias.t138 CSoutput.t85 gnd.t45 sky130_fd_pr__nfet_01v8 ad=1.155 pd=7.33 as=1.155 ps=7.33 w=7 l=1
X156 CSoutput.t54 commonsourceibias.t139 gnd.t144 gnd.t16 sky130_fd_pr__nfet_01v8 ad=1.155 pd=7.33 as=1.155 ps=7.33 w=7 l=1
X157 CSoutput.t80 commonsourceibias.t140 gnd.t143 gnd.t50 sky130_fd_pr__nfet_01v8 ad=1.155 pd=7.33 as=2.73 ps=14.78 w=7 l=1
X158 CSoutput.t81 commonsourceibias.t141 gnd.t141 gnd.t123 sky130_fd_pr__nfet_01v8 ad=1.155 pd=7.33 as=1.155 ps=7.33 w=7 l=1
X159 a_n2903_n3924.t28 plus.t11 a_n6972_8799.t3 gnd.t9 sky130_fd_pr__nfet_01v8 ad=1.155 pd=7.33 as=1.155 ps=7.33 w=7 l=0.5
X160 vdd.t235 a_n2318_13878.t60 a_n2140_13878.t6 vdd.t234 sky130_fd_pr__pfet_01v8 ad=1.485 pd=9.33 as=1.485 ps=9.33 w=9 l=0.5
X161 vdd.t79 vdd.t76 vdd.t78 vdd.t77 sky130_fd_pr__pfet_01v8 ad=3.51 pd=18.78 as=0 ps=0 w=9 l=0.5
X162 vdd.t227 CSoutput.t201 output.t11 gnd.t354 sky130_fd_pr__nfet_01v8 ad=0.825 pd=5.33 as=0.825 ps=5.33 w=5 l=1
X163 gnd.t289 gnd.t287 gnd.t288 gnd.t226 sky130_fd_pr__nfet_01v8 ad=2.73 pd=14.78 as=0 ps=0 w=7 l=1
X164 vdd.t197 a_n6972_8799.t61 CSoutput.t153 vdd.t196 sky130_fd_pr__pfet_01v8 ad=1.32 pd=8.33 as=1.32 ps=8.33 w=8 l=0.5
X165 a_n6972_8799.t24 plus.t12 a_n2903_n3924.t27 gnd.t376 sky130_fd_pr__nfet_01v8 ad=1.155 pd=7.33 as=2.73 ps=14.78 w=7 l=0.5
X166 vdd.t75 vdd.t72 vdd.t74 vdd.t73 sky130_fd_pr__pfet_01v8 ad=3.51 pd=18.78 as=0 ps=0 w=9 l=0.5
X167 a_n2318_8322.t9 a_n2318_13878.t61 vdd.t25 vdd.t24 sky130_fd_pr__pfet_01v8 ad=3.51 pd=18.78 as=1.485 ps=9.33 w=9 l=0.5
X168 a_n6972_8799.t26 a_n2318_13878.t62 a_n2318_8322.t22 vdd.t23 sky130_fd_pr__pfet_01v8 ad=1.485 pd=9.33 as=1.485 ps=9.33 w=9 l=0.5
X169 a_n2318_13878.t3 minus.t13 a_n2903_n3924.t4 gnd.t7 sky130_fd_pr__nfet_01v8 ad=1.155 pd=7.33 as=1.155 ps=7.33 w=7 l=0.5
X170 diffpairibias.t11 diffpairibias.t10 gnd.t379 gnd.t378 sky130_fd_pr__nfet_01v8 ad=2.73 pd=14.78 as=2.73 ps=14.78 w=7 l=1
X171 a_n2318_13878.t38 a_n2318_13878.t37 a_n2140_13878.t17 vdd.t22 sky130_fd_pr__pfet_01v8 ad=1.485 pd=9.33 as=1.485 ps=9.33 w=9 l=0.5
X172 vdd.t195 a_n6972_8799.t62 CSoutput.t152 vdd.t144 sky130_fd_pr__pfet_01v8 ad=1.32 pd=8.33 as=1.32 ps=8.33 w=8 l=0.5
X173 CSoutput.t53 commonsourceibias.t142 gnd.t140 gnd.t80 sky130_fd_pr__nfet_01v8 ad=1.155 pd=7.33 as=1.155 ps=7.33 w=7 l=1
X174 a_n6972_8799.t4 a_n2318_13878.t63 a_n2318_8322.t21 vdd.t3 sky130_fd_pr__pfet_01v8 ad=1.485 pd=9.33 as=1.485 ps=9.33 w=9 l=0.5
X175 CSoutput.t151 a_n6972_8799.t63 vdd.t194 vdd.t169 sky130_fd_pr__pfet_01v8 ad=1.32 pd=8.33 as=1.32 ps=8.33 w=8 l=0.5
X176 commonsourceibias.t73 commonsourceibias.t72 gnd.t137 gnd.t14 sky130_fd_pr__nfet_01v8 ad=1.155 pd=7.33 as=1.155 ps=7.33 w=7 l=1
X177 output.t10 CSoutput.t202 vdd.t228 gnd.t353 sky130_fd_pr__nfet_01v8 ad=0.825 pd=5.33 as=0.825 ps=5.33 w=5 l=1
X178 gnd.t139 commonsourceibias.t143 CSoutput.t181 gnd.t109 sky130_fd_pr__nfet_01v8 ad=1.155 pd=7.33 as=1.155 ps=7.33 w=7 l=1
X179 a_n2140_13878.t16 a_n2318_13878.t39 a_n2318_13878.t40 vdd.t2 sky130_fd_pr__pfet_01v8 ad=1.485 pd=9.33 as=1.485 ps=9.33 w=9 l=0.5
X180 gnd.t138 commonsourceibias.t58 commonsourceibias.t59 gnd.t127 sky130_fd_pr__nfet_01v8 ad=1.155 pd=7.33 as=1.155 ps=7.33 w=7 l=1
X181 vdd.t71 vdd.t69 vdd.t70 vdd.t39 sky130_fd_pr__pfet_01v8 ad=3.12 pd=16.78 as=0 ps=0 w=8 l=0.5
X182 CSoutput.t36 commonsourceibias.t144 gnd.t136 gnd.t77 sky130_fd_pr__nfet_01v8 ad=1.155 pd=7.33 as=1.155 ps=7.33 w=7 l=1
X183 plus.t2 gnd.t284 gnd.t286 gnd.t285 sky130_fd_pr__nfet_01v8 ad=0.165 pd=1.33 as=0.165 ps=1.33 w=1 l=0.5
X184 gnd.t283 gnd.t281 minus.t2 gnd.t282 sky130_fd_pr__nfet_01v8 ad=0.39 pd=2.78 as=0.165 ps=1.33 w=1 l=0.5
X185 CSoutput.t150 a_n6972_8799.t64 vdd.t193 vdd.t186 sky130_fd_pr__pfet_01v8 ad=1.32 pd=8.33 as=1.32 ps=8.33 w=8 l=0.5
X186 output.t9 CSoutput.t203 vdd.t229 gnd.t352 sky130_fd_pr__nfet_01v8 ad=0.825 pd=5.33 as=0.825 ps=5.33 w=5 l=1
X187 a_n2318_13878.t48 minus.t14 a_n2903_n3924.t40 gnd.t369 sky130_fd_pr__nfet_01v8 ad=1.155 pd=7.33 as=1.155 ps=7.33 w=7 l=0.5
X188 CSoutput.t91 commonsourceibias.t145 gnd.t135 gnd.t72 sky130_fd_pr__nfet_01v8 ad=1.155 pd=7.33 as=1.155 ps=7.33 w=7 l=1
X189 vdd.t106 a_n2318_13878.t64 a_n2318_8322.t8 vdd.t105 sky130_fd_pr__pfet_01v8 ad=1.485 pd=9.33 as=3.51 ps=18.78 w=9 l=0.5
X190 a_n2140_13878.t15 a_n2318_13878.t15 a_n2318_13878.t16 vdd.t102 sky130_fd_pr__pfet_01v8 ad=1.485 pd=9.33 as=3.51 ps=18.78 w=9 l=0.5
X191 gnd.t134 commonsourceibias.t146 CSoutput.t6 gnd.t37 sky130_fd_pr__nfet_01v8 ad=1.155 pd=7.33 as=1.155 ps=7.33 w=7 l=1
X192 gnd.t133 commonsourceibias.t147 CSoutput.t44 gnd.t127 sky130_fd_pr__nfet_01v8 ad=1.155 pd=7.33 as=1.155 ps=7.33 w=7 l=1
X193 vdd.t192 a_n6972_8799.t65 CSoutput.t149 vdd.t184 sky130_fd_pr__pfet_01v8 ad=1.32 pd=8.33 as=1.32 ps=8.33 w=8 l=0.5
X194 a_n2318_13878.t32 a_n2318_13878.t31 a_n2140_13878.t14 vdd.t14 sky130_fd_pr__pfet_01v8 ad=1.485 pd=9.33 as=1.485 ps=9.33 w=9 l=0.5
X195 gnd.t132 commonsourceibias.t148 CSoutput.t50 gnd.t69 sky130_fd_pr__nfet_01v8 ad=1.155 pd=7.33 as=1.155 ps=7.33 w=7 l=1
X196 gnd.t131 commonsourceibias.t149 CSoutput.t99 gnd.t96 sky130_fd_pr__nfet_01v8 ad=1.155 pd=7.33 as=1.155 ps=7.33 w=7 l=1
X197 commonsourceibias.t71 commonsourceibias.t70 gnd.t130 gnd.t129 sky130_fd_pr__nfet_01v8 ad=1.155 pd=7.33 as=1.155 ps=7.33 w=7 l=1
X198 gnd.t128 commonsourceibias.t150 CSoutput.t106 gnd.t127 sky130_fd_pr__nfet_01v8 ad=1.155 pd=7.33 as=1.155 ps=7.33 w=7 l=1
X199 gnd.t280 gnd.t278 gnd.t279 gnd.t234 sky130_fd_pr__nfet_01v8 ad=2.73 pd=14.78 as=0 ps=0 w=7 l=1
X200 gnd.t126 commonsourceibias.t151 CSoutput.t98 gnd.t54 sky130_fd_pr__nfet_01v8 ad=2.73 pd=14.78 as=1.155 ps=7.33 w=7 l=1
X201 CSoutput.t82 commonsourceibias.t152 gnd.t125 gnd.t66 sky130_fd_pr__nfet_01v8 ad=1.155 pd=7.33 as=1.155 ps=7.33 w=7 l=1
X202 a_n2903_n3924.t47 diffpairibias.t19 gnd.t396 gnd.t395 sky130_fd_pr__nfet_01v8 ad=2.73 pd=14.78 as=2.73 ps=14.78 w=7 l=1
X203 gnd.t258 gnd.t255 gnd.t257 gnd.t256 sky130_fd_pr__nfet_01v8 ad=2.73 pd=14.78 as=0 ps=0 w=7 l=1
X204 a_n2903_n3924.t13 diffpairibias.t20 gnd.t373 gnd.t372 sky130_fd_pr__nfet_01v8 ad=2.73 pd=14.78 as=2.73 ps=14.78 w=7 l=1
X205 commonsourceibias.t15 commonsourceibias.t14 gnd.t124 gnd.t123 sky130_fd_pr__nfet_01v8 ad=1.155 pd=7.33 as=1.155 ps=7.33 w=7 l=1
X206 a_n2318_13878.t1 minus.t15 a_n2903_n3924.t2 gnd.t3 sky130_fd_pr__nfet_01v8 ad=1.155 pd=7.33 as=1.155 ps=7.33 w=7 l=0.5
X207 vdd.t191 a_n6972_8799.t66 CSoutput.t148 vdd.t154 sky130_fd_pr__pfet_01v8 ad=3.12 pd=16.78 as=1.32 ps=8.33 w=8 l=0.5
X208 gnd.t277 gnd.t275 gnd.t276 gnd.t242 sky130_fd_pr__nfet_01v8 ad=2.73 pd=14.78 as=0 ps=0 w=7 l=1
X209 gnd.t274 gnd.t272 minus.t1 gnd.t273 sky130_fd_pr__nfet_01v8 ad=0.165 pd=1.33 as=0.39 ps=2.78 w=1 l=0.5
X210 CSoutput.t45 commonsourceibias.t153 gnd.t122 gnd.t80 sky130_fd_pr__nfet_01v8 ad=1.155 pd=7.33 as=1.155 ps=7.33 w=7 l=1
X211 CSoutput.t7 commonsourceibias.t154 gnd.t121 gnd.t52 sky130_fd_pr__nfet_01v8 ad=1.155 pd=7.33 as=1.155 ps=7.33 w=7 l=1
X212 commonsourceibias.t13 commonsourceibias.t12 gnd.t120 gnd.t118 sky130_fd_pr__nfet_01v8 ad=1.155 pd=7.33 as=1.155 ps=7.33 w=7 l=1
X213 gnd.t271 gnd.t268 gnd.t270 gnd.t269 sky130_fd_pr__nfet_01v8 ad=1.95 pd=10.78 as=0 ps=0 w=5 l=1
X214 output.t19 outputibias.t8 gnd.t384 gnd.t383 sky130_fd_pr__nfet_01v8 ad=2.34 pd=12.78 as=2.34 ps=12.78 w=6 l=2
X215 gnd.t267 gnd.t265 gnd.t266 gnd.t218 sky130_fd_pr__nfet_01v8 ad=2.73 pd=14.78 as=0 ps=0 w=7 l=0.5
X216 CSoutput.t79 commonsourceibias.t155 gnd.t119 gnd.t118 sky130_fd_pr__nfet_01v8 ad=1.155 pd=7.33 as=1.155 ps=7.33 w=7 l=1
X217 CSoutput.t147 a_n6972_8799.t67 vdd.t190 vdd.t189 sky130_fd_pr__pfet_01v8 ad=1.32 pd=8.33 as=1.32 ps=8.33 w=8 l=0.5
X218 commonsourceibias.t11 commonsourceibias.t10 gnd.t117 gnd.t91 sky130_fd_pr__nfet_01v8 ad=1.155 pd=7.33 as=1.155 ps=7.33 w=7 l=1
X219 a_n2318_13878.t2 minus.t16 a_n2903_n3924.t3 gnd.t6 sky130_fd_pr__nfet_01v8 ad=1.155 pd=7.33 as=1.155 ps=7.33 w=7 l=0.5
X220 CSoutput.t146 a_n6972_8799.t68 vdd.t188 vdd.t176 sky130_fd_pr__pfet_01v8 ad=1.32 pd=8.33 as=1.32 ps=8.33 w=8 l=0.5
X221 CSoutput.t49 commonsourceibias.t156 gnd.t116 gnd.t41 sky130_fd_pr__nfet_01v8 ad=1.155 pd=7.33 as=1.155 ps=7.33 w=7 l=1
X222 outputibias.t7 outputibias.t6 gnd.t400 gnd.t399 sky130_fd_pr__nfet_01v8 ad=2.34 pd=12.78 as=2.34 ps=12.78 w=6 l=2
X223 gnd.t115 commonsourceibias.t78 commonsourceibias.t79 gnd.t114 sky130_fd_pr__nfet_01v8 ad=1.155 pd=7.33 as=1.155 ps=7.33 w=7 l=1
X224 vdd.t15 CSoutput.t204 output.t8 gnd.t351 sky130_fd_pr__nfet_01v8 ad=0.825 pd=5.33 as=0.825 ps=5.33 w=5 l=1
X225 diffpairibias.t9 diffpairibias.t8 gnd.t365 gnd.t364 sky130_fd_pr__nfet_01v8 ad=2.73 pd=14.78 as=2.73 ps=14.78 w=7 l=1
X226 a_n2140_13878.t5 a_n2318_13878.t65 vdd.t108 vdd.t107 sky130_fd_pr__pfet_01v8 ad=1.485 pd=9.33 as=1.485 ps=9.33 w=9 l=0.5
X227 output.t0 outputibias.t9 gnd.t5 gnd.t4 sky130_fd_pr__nfet_01v8 ad=2.34 pd=12.78 as=2.34 ps=12.78 w=6 l=2
X228 vdd.t225 a_n2318_13878.t66 a_n2140_13878.t4 vdd.t224 sky130_fd_pr__pfet_01v8 ad=1.485 pd=9.33 as=1.485 ps=9.33 w=9 l=0.5
X229 CSoutput.t52 commonsourceibias.t157 gnd.t113 gnd.t66 sky130_fd_pr__nfet_01v8 ad=1.155 pd=7.33 as=1.155 ps=7.33 w=7 l=1
X230 CSoutput.t179 commonsourceibias.t158 gnd.t112 gnd.t18 sky130_fd_pr__nfet_01v8 ad=1.155 pd=7.33 as=1.155 ps=7.33 w=7 l=1
X231 CSoutput.t145 a_n6972_8799.t69 vdd.t187 vdd.t186 sky130_fd_pr__pfet_01v8 ad=1.32 pd=8.33 as=1.32 ps=8.33 w=8 l=0.5
X232 CSoutput.t48 commonsourceibias.t159 gnd.t111 gnd.t41 sky130_fd_pr__nfet_01v8 ad=1.155 pd=7.33 as=1.155 ps=7.33 w=7 l=1
X233 a_n2903_n3924.t26 plus.t13 a_n6972_8799.t29 gnd.t381 sky130_fd_pr__nfet_01v8 ad=1.155 pd=7.33 as=1.155 ps=7.33 w=7 l=0.5
X234 gnd.t110 commonsourceibias.t76 commonsourceibias.t77 gnd.t109 sky130_fd_pr__nfet_01v8 ad=1.155 pd=7.33 as=1.155 ps=7.33 w=7 l=1
X235 vdd.t185 a_n6972_8799.t70 CSoutput.t144 vdd.t184 sky130_fd_pr__pfet_01v8 ad=1.32 pd=8.33 as=1.32 ps=8.33 w=8 l=0.5
X236 outputibias.t5 outputibias.t4 gnd.t390 gnd.t389 sky130_fd_pr__nfet_01v8 ad=2.34 pd=12.78 as=2.34 ps=12.78 w=6 l=2
X237 commonsourceibias.t75 commonsourceibias.t74 gnd.t108 gnd.t107 sky130_fd_pr__nfet_01v8 ad=1.155 pd=7.33 as=1.155 ps=7.33 w=7 l=1
X238 gnd.t106 commonsourceibias.t160 CSoutput.t40 gnd.t37 sky130_fd_pr__nfet_01v8 ad=1.155 pd=7.33 as=1.155 ps=7.33 w=7 l=1
X239 a_n2903_n3924.t38 minus.t17 a_n2318_13878.t46 gnd.t382 sky130_fd_pr__nfet_01v8 ad=1.155 pd=7.33 as=1.155 ps=7.33 w=7 l=0.5
X240 a_n2140_13878.t13 a_n2318_13878.t41 a_n2318_13878.t42 vdd.t5 sky130_fd_pr__pfet_01v8 ad=1.485 pd=9.33 as=1.485 ps=9.33 w=9 l=0.5
X241 a_n2903_n3924.t25 plus.t14 a_n6972_8799.t34 gnd.t368 sky130_fd_pr__nfet_01v8 ad=1.155 pd=7.33 as=1.155 ps=7.33 w=7 l=0.5
X242 gnd.t105 commonsourceibias.t8 commonsourceibias.t9 gnd.t12 sky130_fd_pr__nfet_01v8 ad=1.155 pd=7.33 as=1.155 ps=7.33 w=7 l=1
X243 gnd.t104 commonsourceibias.t161 CSoutput.t185 gnd.t35 sky130_fd_pr__nfet_01v8 ad=1.155 pd=7.33 as=1.155 ps=7.33 w=7 l=1
X244 a_n2903_n3924.t36 minus.t18 a_n2318_13878.t44 gnd.t336 sky130_fd_pr__nfet_01v8 ad=2.73 pd=14.78 as=1.155 ps=7.33 w=7 l=0.5
X245 commonsourceibias.t7 commonsourceibias.t6 gnd.t103 gnd.t39 sky130_fd_pr__nfet_01v8 ad=1.155 pd=7.33 as=2.73 ps=14.78 w=7 l=1
X246 a_n6972_8799.t9 plus.t15 a_n2903_n3924.t24 gnd.t334 sky130_fd_pr__nfet_01v8 ad=1.155 pd=7.33 as=2.73 ps=14.78 w=7 l=0.5