* NGSPICE file created from opamp552.ext - technology: sky130A

.subckt opamp552 gnd CSoutput output vdd plus minus commonsourceibias outputibias
+ diffpairibias
X0 CSoutput.t189 a_n8964_8799.t36 vdd.t290 vdd.t230 sky130_fd_pr__pfet_01v8 ad=1.32 pd=8.33 as=3.12 ps=16.78 w=8 l=0.5
X1 gnd.t171 commonsourceibias.t48 commonsourceibias.t49 gnd.t92 sky130_fd_pr__nfet_01v8 ad=1.155 pd=7.33 as=1.155 ps=7.33 w=7 l=1
X2 a_n2472_13878.t19 a_n2650_13878.t32 a_n2650_13878.t33 vdd.t4 sky130_fd_pr__pfet_01v8 ad=1.485 pd=9.33 as=1.485 ps=9.33 w=9 l=0.5
X3 a_n2472_13878.t27 a_n2650_13878.t56 vdd.t34 vdd.t33 sky130_fd_pr__pfet_01v8 ad=1.485 pd=9.33 as=1.485 ps=9.33 w=9 l=0.5
X4 CSoutput.t38 commonsourceibias.t64 gnd.t170 gnd.t61 sky130_fd_pr__nfet_01v8 ad=1.155 pd=7.33 as=2.73 ps=14.78 w=7 l=1
X5 vdd.t289 a_n8964_8799.t37 CSoutput.t188 vdd.t224 sky130_fd_pr__pfet_01v8 ad=1.32 pd=8.33 as=1.32 ps=8.33 w=8 l=0.5
X6 commonsourceibias.t47 commonsourceibias.t46 gnd.t169 gnd.t33 sky130_fd_pr__nfet_01v8 ad=1.155 pd=7.33 as=1.155 ps=7.33 w=7 l=1
X7 gnd.t168 commonsourceibias.t65 CSoutput.t39 gnd.t20 sky130_fd_pr__nfet_01v8 ad=1.155 pd=7.33 as=1.155 ps=7.33 w=7 l=1
X8 CSoutput.t187 a_n8964_8799.t38 vdd.t288 vdd.t147 sky130_fd_pr__pfet_01v8 ad=1.32 pd=8.33 as=1.32 ps=8.33 w=8 l=0.5
X9 gnd.t167 commonsourceibias.t44 commonsourceibias.t45 gnd.t28 sky130_fd_pr__nfet_01v8 ad=1.155 pd=7.33 as=1.155 ps=7.33 w=7 l=1
X10 a_n3827_n3924.t27 diffpairibias.t20 gnd.t321 gnd.t320 sky130_fd_pr__nfet_01v8 ad=2.73 pd=14.78 as=2.73 ps=14.78 w=7 l=1
X11 CSoutput.t186 a_n8964_8799.t39 vdd.t287 vdd.t139 sky130_fd_pr__pfet_01v8 ad=1.32 pd=8.33 as=1.32 ps=8.33 w=8 l=0.5
X12 vdd.t286 a_n8964_8799.t40 CSoutput.t185 vdd.t212 sky130_fd_pr__pfet_01v8 ad=1.32 pd=8.33 as=1.32 ps=8.33 w=8 l=0.5
X13 gnd.t166 commonsourceibias.t42 commonsourceibias.t43 gnd.t12 sky130_fd_pr__nfet_01v8 ad=1.155 pd=7.33 as=1.155 ps=7.33 w=7 l=1
X14 a_n2650_8322.t27 a_n2650_13878.t57 a_n8964_8799.t17 vdd.t35 sky130_fd_pr__pfet_01v8 ad=1.485 pd=9.33 as=1.485 ps=9.33 w=9 l=0.5
X15 CSoutput.t184 a_n8964_8799.t41 vdd.t285 vdd.t173 sky130_fd_pr__pfet_01v8 ad=1.32 pd=8.33 as=1.32 ps=8.33 w=8 l=0.5
X16 commonsourceibias.t41 commonsourceibias.t40 gnd.t165 gnd.t51 sky130_fd_pr__nfet_01v8 ad=1.155 pd=7.33 as=1.155 ps=7.33 w=7 l=1
X17 vdd.t284 a_n8964_8799.t42 CSoutput.t183 vdd.t270 sky130_fd_pr__pfet_01v8 ad=1.32 pd=8.33 as=1.32 ps=8.33 w=8 l=0.5
X18 gnd.t164 commonsourceibias.t66 CSoutput.t197 gnd.t86 sky130_fd_pr__nfet_01v8 ad=1.155 pd=7.33 as=1.155 ps=7.33 w=7 l=1
X19 CSoutput.t182 a_n8964_8799.t43 vdd.t283 vdd.t182 sky130_fd_pr__pfet_01v8 ad=1.32 pd=8.33 as=1.32 ps=8.33 w=8 l=0.5
X20 a_n8964_8799.t19 plus.t5 a_n3827_n3924.t32 gnd.t181 sky130_fd_pr__nfet_01v8 ad=1.155 pd=7.33 as=1.155 ps=7.33 w=7 l=0.5
X21 vdd.t282 a_n8964_8799.t44 CSoutput.t181 vdd.t270 sky130_fd_pr__pfet_01v8 ad=1.32 pd=8.33 as=1.32 ps=8.33 w=8 l=0.5
X22 vdd.t281 a_n8964_8799.t45 CSoutput.t180 vdd.t217 sky130_fd_pr__pfet_01v8 ad=1.32 pd=8.33 as=1.32 ps=8.33 w=8 l=0.5
X23 gnd.t312 gnd.t310 gnd.t311 gnd.t231 sky130_fd_pr__nfet_01v8 ad=2.73 pd=14.78 as=0 ps=0 w=7 l=1
X24 gnd.t309 gnd.t306 gnd.t308 gnd.t307 sky130_fd_pr__nfet_01v8 ad=2.34 pd=12.78 as=0 ps=0 w=6 l=2
X25 a_n8964_8799.t31 a_n2650_13878.t58 a_n2650_8322.t26 vdd.t53 sky130_fd_pr__pfet_01v8 ad=1.485 pd=9.33 as=1.485 ps=9.33 w=9 l=0.5
X26 vdd.t274 a_n8964_8799.t46 CSoutput.t179 vdd.t135 sky130_fd_pr__pfet_01v8 ad=1.32 pd=8.33 as=1.32 ps=8.33 w=8 l=0.5
X27 vdd.t280 a_n8964_8799.t47 CSoutput.t178 vdd.t246 sky130_fd_pr__pfet_01v8 ad=1.32 pd=8.33 as=1.32 ps=8.33 w=8 l=0.5
X28 commonsourceibias.t57 commonsourceibias.t56 gnd.t119 gnd.t90 sky130_fd_pr__nfet_01v8 ad=1.155 pd=7.33 as=1.155 ps=7.33 w=7 l=1
X29 a_n8964_8799.t32 a_n2650_13878.t59 a_n2650_8322.t25 vdd.t44 sky130_fd_pr__pfet_01v8 ad=1.485 pd=9.33 as=3.51 ps=18.78 w=9 l=0.5
X30 a_n8964_8799.t35 plus.t6 a_n3827_n3924.t41 gnd.t317 sky130_fd_pr__nfet_01v8 ad=1.155 pd=7.33 as=1.155 ps=7.33 w=7 l=0.5
X31 gnd.t163 commonsourceibias.t67 CSoutput.t198 gnd.t24 sky130_fd_pr__nfet_01v8 ad=1.155 pd=7.33 as=1.155 ps=7.33 w=7 l=1
X32 CSoutput.t22 commonsourceibias.t68 gnd.t162 gnd.t39 sky130_fd_pr__nfet_01v8 ad=1.155 pd=7.33 as=1.155 ps=7.33 w=7 l=1
X33 gnd.t161 commonsourceibias.t62 commonsourceibias.t63 gnd.t86 sky130_fd_pr__nfet_01v8 ad=1.155 pd=7.33 as=1.155 ps=7.33 w=7 l=1
X34 CSoutput.t216 a_n2650_8322.t33 sky130_fd_pr__cap_mim_m3_1 l=12 w=12
X35 CSoutput.t23 commonsourceibias.t69 gnd.t160 gnd.t95 sky130_fd_pr__nfet_01v8 ad=1.155 pd=7.33 as=1.155 ps=7.33 w=7 l=1
X36 CSoutput.t177 a_n8964_8799.t48 vdd.t279 vdd.t230 sky130_fd_pr__pfet_01v8 ad=1.32 pd=8.33 as=3.12 ps=16.78 w=8 l=0.5
X37 a_n3827_n3924.t26 diffpairibias.t21 gnd.t362 gnd.t361 sky130_fd_pr__nfet_01v8 ad=2.73 pd=14.78 as=2.73 ps=14.78 w=7 l=1
X38 a_n3827_n3924.t40 minus.t5 a_n2650_13878.t55 gnd.t342 sky130_fd_pr__nfet_01v8 ad=1.155 pd=7.33 as=1.155 ps=7.33 w=7 l=0.5
X39 commonsourceibias.t61 commonsourceibias.t60 gnd.t159 gnd.t14 sky130_fd_pr__nfet_01v8 ad=1.155 pd=7.33 as=1.155 ps=7.33 w=7 l=1
X40 CSoutput.t176 a_n8964_8799.t49 vdd.t278 vdd.t196 sky130_fd_pr__pfet_01v8 ad=1.32 pd=8.33 as=1.32 ps=8.33 w=8 l=0.5
X41 gnd.t305 gnd.t303 plus.t4 gnd.t304 sky130_fd_pr__nfet_01v8 ad=0.165 pd=1.33 as=0.39 ps=2.78 w=1 l=0.5
X42 a_n3827_n3924.t17 plus.t7 a_n8964_8799.t15 gnd.t191 sky130_fd_pr__nfet_01v8 ad=2.73 pd=14.78 as=1.155 ps=7.33 w=7 l=0.5
X43 vdd.t277 a_n8964_8799.t50 CSoutput.t175 vdd.t135 sky130_fd_pr__pfet_01v8 ad=1.32 pd=8.33 as=1.32 ps=8.33 w=8 l=0.5
X44 CSoutput.t205 commonsourceibias.t70 gnd.t158 gnd.t95 sky130_fd_pr__nfet_01v8 ad=1.155 pd=7.33 as=1.155 ps=7.33 w=7 l=1
X45 a_n2650_13878.t51 minus.t6 a_n3827_n3924.t29 gnd.t315 sky130_fd_pr__nfet_01v8 ad=1.155 pd=7.33 as=2.73 ps=14.78 w=7 l=0.5
X46 a_n3827_n3924.t7 minus.t7 a_n2650_13878.t3 gnd.t8 sky130_fd_pr__nfet_01v8 ad=1.155 pd=7.33 as=1.155 ps=7.33 w=7 l=0.5
X47 CSoutput.t174 a_n8964_8799.t51 vdd.t276 vdd.t139 sky130_fd_pr__pfet_01v8 ad=1.32 pd=8.33 as=1.32 ps=8.33 w=8 l=0.5
X48 vdd.t130 vdd.t128 vdd.t129 vdd.t64 sky130_fd_pr__pfet_01v8 ad=3.51 pd=18.78 as=0 ps=0 w=9 l=0.5
X49 gnd.t157 commonsourceibias.t58 commonsourceibias.t59 gnd.t80 sky130_fd_pr__nfet_01v8 ad=1.155 pd=7.33 as=1.155 ps=7.33 w=7 l=1
X50 CSoutput.t206 commonsourceibias.t71 gnd.t156 gnd.t26 sky130_fd_pr__nfet_01v8 ad=1.155 pd=7.33 as=2.73 ps=14.78 w=7 l=1
X51 vdd.t275 a_n8964_8799.t52 CSoutput.t173 vdd.t212 sky130_fd_pr__pfet_01v8 ad=1.32 pd=8.33 as=1.32 ps=8.33 w=8 l=0.5
X52 a_n2472_13878.t18 a_n2650_13878.t26 a_n2650_13878.t27 vdd.t8 sky130_fd_pr__pfet_01v8 ad=1.485 pd=9.33 as=1.485 ps=9.33 w=9 l=0.5
X53 a_n2650_13878.t21 a_n2650_13878.t20 a_n2472_13878.t17 vdd.t38 sky130_fd_pr__pfet_01v8 ad=1.485 pd=9.33 as=1.485 ps=9.33 w=9 l=0.5
X54 output.t3 outputibias.t8 gnd.t180 gnd.t179 sky130_fd_pr__nfet_01v8 ad=2.34 pd=12.78 as=2.34 ps=12.78 w=6 l=2
X55 CSoutput.t217 a_n2650_8322.t32 sky130_fd_pr__cap_mim_m3_1 l=12 w=12
X56 CSoutput.t172 a_n8964_8799.t53 vdd.t273 vdd.t182 sky130_fd_pr__pfet_01v8 ad=1.32 pd=8.33 as=1.32 ps=8.33 w=8 l=0.5
X57 vdd.t127 vdd.t125 vdd.t126 vdd.t102 sky130_fd_pr__pfet_01v8 ad=3.51 pd=18.78 as=0 ps=0 w=9 l=0.5
X58 a_n3827_n3924.t39 minus.t8 a_n2650_13878.t54 gnd.t6 sky130_fd_pr__nfet_01v8 ad=1.155 pd=7.33 as=1.155 ps=7.33 w=7 l=0.5
X59 vdd.t272 a_n8964_8799.t54 CSoutput.t171 vdd.t217 sky130_fd_pr__pfet_01v8 ad=1.32 pd=8.33 as=1.32 ps=8.33 w=8 l=0.5
X60 vdd.t271 a_n8964_8799.t55 CSoutput.t170 vdd.t270 sky130_fd_pr__pfet_01v8 ad=1.32 pd=8.33 as=1.32 ps=8.33 w=8 l=0.5
X61 vdd.t26 CSoutput.t218 output.t19 gnd.t360 sky130_fd_pr__nfet_01v8 ad=0.825 pd=5.33 as=0.825 ps=5.33 w=5 l=1
X62 diffpairibias.t19 diffpairibias.t18 gnd.t327 gnd.t326 sky130_fd_pr__nfet_01v8 ad=2.73 pd=14.78 as=2.73 ps=14.78 w=7 l=1
X63 CSoutput.t10 commonsourceibias.t72 gnd.t155 gnd.t59 sky130_fd_pr__nfet_01v8 ad=1.155 pd=7.33 as=1.155 ps=7.33 w=7 l=1
X64 a_n2650_13878.t17 a_n2650_13878.t16 a_n2472_13878.t16 vdd.t32 sky130_fd_pr__pfet_01v8 ad=1.485 pd=9.33 as=1.485 ps=9.33 w=9 l=0.5
X65 CSoutput.t169 a_n8964_8799.t56 vdd.t269 vdd.t243 sky130_fd_pr__pfet_01v8 ad=1.32 pd=8.33 as=1.32 ps=8.33 w=8 l=0.5
X66 a_n8964_8799.t33 a_n2650_13878.t60 a_n2650_8322.t24 vdd.t54 sky130_fd_pr__pfet_01v8 ad=1.485 pd=9.33 as=1.485 ps=9.33 w=9 l=0.5
X67 CSoutput.t11 commonsourceibias.t73 gnd.t154 gnd.t105 sky130_fd_pr__nfet_01v8 ad=1.155 pd=7.33 as=1.155 ps=7.33 w=7 l=1
X68 CSoutput.t65 commonsourceibias.t74 gnd.t153 gnd.t77 sky130_fd_pr__nfet_01v8 ad=1.155 pd=7.33 as=1.155 ps=7.33 w=7 l=1
X69 vdd.t268 a_n8964_8799.t57 CSoutput.t168 vdd.t179 sky130_fd_pr__pfet_01v8 ad=1.32 pd=8.33 as=1.32 ps=8.33 w=8 l=0.5
X70 CSoutput.t167 a_n8964_8799.t58 vdd.t267 vdd.t228 sky130_fd_pr__pfet_01v8 ad=1.32 pd=8.33 as=1.32 ps=8.33 w=8 l=0.5
X71 commonsourceibias.t39 commonsourceibias.t38 gnd.t152 gnd.t61 sky130_fd_pr__nfet_01v8 ad=1.155 pd=7.33 as=2.73 ps=14.78 w=7 l=1
X72 a_n2650_13878.t5 a_n2650_13878.t4 a_n2472_13878.t15 vdd.t5 sky130_fd_pr__pfet_01v8 ad=3.51 pd=18.78 as=1.485 ps=9.33 w=9 l=0.5
X73 gnd.t302 gnd.t300 gnd.t301 gnd.t208 sky130_fd_pr__nfet_01v8 ad=2.73 pd=14.78 as=0 ps=0 w=7 l=1
X74 gnd.t299 gnd.t297 plus.t3 gnd.t298 sky130_fd_pr__nfet_01v8 ad=0.39 pd=2.78 as=0.165 ps=1.33 w=1 l=0.5
X75 vdd.t264 a_n8964_8799.t59 CSoutput.t166 vdd.t151 sky130_fd_pr__pfet_01v8 ad=1.32 pd=8.33 as=1.32 ps=8.33 w=8 l=0.5
X76 vdd.t266 a_n8964_8799.t60 CSoutput.t165 vdd.t246 sky130_fd_pr__pfet_01v8 ad=1.32 pd=8.33 as=1.32 ps=8.33 w=8 l=0.5
X77 minus.t4 gnd.t294 gnd.t296 gnd.t295 sky130_fd_pr__nfet_01v8 ad=0.165 pd=1.33 as=0.165 ps=1.33 w=1 l=0.5
X78 a_n8964_8799.t34 a_n2650_13878.t61 a_n2650_8322.t23 vdd.t0 sky130_fd_pr__pfet_01v8 ad=1.485 pd=9.33 as=3.51 ps=18.78 w=9 l=0.5
X79 diffpairibias.t17 diffpairibias.t16 gnd.t176 gnd.t175 sky130_fd_pr__nfet_01v8 ad=2.73 pd=14.78 as=2.73 ps=14.78 w=7 l=1
X80 CSoutput.t164 a_n8964_8799.t61 vdd.t265 vdd.t158 sky130_fd_pr__pfet_01v8 ad=1.32 pd=8.33 as=1.32 ps=8.33 w=8 l=0.5
X81 gnd.t293 gnd.t291 gnd.t292 gnd.t208 sky130_fd_pr__nfet_01v8 ad=2.73 pd=14.78 as=0 ps=0 w=7 l=1
X82 a_n2650_8322.t22 a_n2650_13878.t62 a_n8964_8799.t6 vdd.t5 sky130_fd_pr__pfet_01v8 ad=3.51 pd=18.78 as=1.485 ps=9.33 w=9 l=0.5
X83 CSoutput.t66 commonsourceibias.t75 gnd.t151 gnd.t77 sky130_fd_pr__nfet_01v8 ad=1.155 pd=7.33 as=1.155 ps=7.33 w=7 l=1
X84 CSoutput.t163 a_n8964_8799.t62 vdd.t263 vdd.t200 sky130_fd_pr__pfet_01v8 ad=1.32 pd=8.33 as=1.32 ps=8.33 w=8 l=0.5
X85 gnd.t150 commonsourceibias.t76 CSoutput.t47 gnd.t55 sky130_fd_pr__nfet_01v8 ad=1.155 pd=7.33 as=1.155 ps=7.33 w=7 l=1
X86 gnd.t290 gnd.t287 gnd.t289 gnd.t288 sky130_fd_pr__nfet_01v8 ad=2.34 pd=12.78 as=0 ps=0 w=6 l=2
X87 CSoutput.t48 commonsourceibias.t77 gnd.t149 gnd.t73 sky130_fd_pr__nfet_01v8 ad=1.155 pd=7.33 as=1.155 ps=7.33 w=7 l=1
X88 a_n8964_8799.t26 plus.t8 a_n3827_n3924.t35 gnd.t5 sky130_fd_pr__nfet_01v8 ad=1.155 pd=7.33 as=1.155 ps=7.33 w=7 l=0.5
X89 gnd.t148 commonsourceibias.t78 CSoutput.t15 gnd.t35 sky130_fd_pr__nfet_01v8 ad=2.73 pd=14.78 as=1.155 ps=7.33 w=7 l=1
X90 gnd.t286 gnd.t284 gnd.t285 gnd.t231 sky130_fd_pr__nfet_01v8 ad=2.73 pd=14.78 as=0 ps=0 w=7 l=1
X91 vdd.t124 vdd.t122 vdd.t123 vdd.t98 sky130_fd_pr__pfet_01v8 ad=3.12 pd=16.78 as=0 ps=0 w=8 l=0.5
X92 a_n3827_n3924.t25 diffpairibias.t22 gnd.t323 gnd.t322 sky130_fd_pr__nfet_01v8 ad=2.73 pd=14.78 as=2.73 ps=14.78 w=7 l=1
X93 vdd.t262 a_n8964_8799.t63 CSoutput.t162 vdd.t215 sky130_fd_pr__pfet_01v8 ad=1.32 pd=8.33 as=1.32 ps=8.33 w=8 l=0.5
X94 a_n3827_n3924.t30 minus.t9 a_n2650_13878.t52 gnd.t316 sky130_fd_pr__nfet_01v8 ad=1.155 pd=7.33 as=1.155 ps=7.33 w=7 l=0.5
X95 vdd.t261 a_n8964_8799.t64 CSoutput.t161 vdd.t250 sky130_fd_pr__pfet_01v8 ad=1.32 pd=8.33 as=1.32 ps=8.33 w=8 l=0.5
X96 CSoutput.t16 commonsourceibias.t79 gnd.t147 gnd.t18 sky130_fd_pr__nfet_01v8 ad=1.155 pd=7.33 as=1.155 ps=7.33 w=7 l=1
X97 a_n2650_13878.t15 a_n2650_13878.t14 a_n2472_13878.t14 vdd.t35 sky130_fd_pr__pfet_01v8 ad=1.485 pd=9.33 as=1.485 ps=9.33 w=9 l=0.5
X98 vdd.t260 a_n8964_8799.t65 CSoutput.t160 vdd.t190 sky130_fd_pr__pfet_01v8 ad=3.12 pd=16.78 as=1.32 ps=8.33 w=8 l=0.5
X99 vdd.t259 a_n8964_8799.t66 CSoutput.t159 vdd.t222 sky130_fd_pr__pfet_01v8 ad=1.32 pd=8.33 as=1.32 ps=8.33 w=8 l=0.5
X100 a_n8964_8799.t7 a_n2650_13878.t63 a_n2650_8322.t21 vdd.t6 sky130_fd_pr__pfet_01v8 ad=1.485 pd=9.33 as=1.485 ps=9.33 w=9 l=0.5
X101 a_n2650_13878.t7 a_n2650_13878.t6 a_n2472_13878.t13 vdd.t11 sky130_fd_pr__pfet_01v8 ad=3.51 pd=18.78 as=1.485 ps=9.33 w=9 l=0.5
X102 a_n2650_13878.t48 minus.t10 a_n3827_n3924.t14 gnd.t184 sky130_fd_pr__nfet_01v8 ad=1.155 pd=7.33 as=1.155 ps=7.33 w=7 l=0.5
X103 a_n3827_n3924.t15 plus.t9 a_n8964_8799.t14 gnd.t174 sky130_fd_pr__nfet_01v8 ad=1.155 pd=7.33 as=1.155 ps=7.33 w=7 l=0.5
X104 outputibias.t7 outputibias.t6 gnd.t193 gnd.t192 sky130_fd_pr__nfet_01v8 ad=2.34 pd=12.78 as=2.34 ps=12.78 w=6 l=2
X105 commonsourceibias.t37 commonsourceibias.t36 gnd.t146 gnd.t39 sky130_fd_pr__nfet_01v8 ad=1.155 pd=7.33 as=1.155 ps=7.33 w=7 l=1
X106 gnd.t145 commonsourceibias.t80 CSoutput.t190 gnd.t53 sky130_fd_pr__nfet_01v8 ad=1.155 pd=7.33 as=1.155 ps=7.33 w=7 l=1
X107 gnd.t283 gnd.t281 gnd.t282 gnd.t212 sky130_fd_pr__nfet_01v8 ad=2.73 pd=14.78 as=0 ps=0 w=7 l=1
X108 CSoutput.t191 commonsourceibias.t81 gnd.t144 gnd.t33 sky130_fd_pr__nfet_01v8 ad=1.155 pd=7.33 as=1.155 ps=7.33 w=7 l=1
X109 vdd.t258 a_n8964_8799.t67 CSoutput.t158 vdd.t156 sky130_fd_pr__pfet_01v8 ad=1.32 pd=8.33 as=1.32 ps=8.33 w=8 l=0.5
X110 gnd.t143 commonsourceibias.t34 commonsourceibias.t35 gnd.t37 sky130_fd_pr__nfet_01v8 ad=1.155 pd=7.33 as=1.155 ps=7.33 w=7 l=1
X111 CSoutput.t157 a_n8964_8799.t68 vdd.t257 vdd.t194 sky130_fd_pr__pfet_01v8 ad=1.32 pd=8.33 as=1.32 ps=8.33 w=8 l=0.5
X112 CSoutput.t193 commonsourceibias.t82 gnd.t142 gnd.t95 sky130_fd_pr__nfet_01v8 ad=1.155 pd=7.33 as=1.155 ps=7.33 w=7 l=1
X113 CSoutput.t156 a_n8964_8799.t69 vdd.t256 vdd.t243 sky130_fd_pr__pfet_01v8 ad=1.32 pd=8.33 as=1.32 ps=8.33 w=8 l=0.5
X114 diffpairibias.t15 diffpairibias.t14 gnd.t339 gnd.t338 sky130_fd_pr__nfet_01v8 ad=2.73 pd=14.78 as=2.73 ps=14.78 w=7 l=1
X115 a_n3827_n3924.t28 minus.t11 a_n2650_13878.t50 gnd.t4 sky130_fd_pr__nfet_01v8 ad=2.73 pd=14.78 as=1.155 ps=7.33 w=7 l=0.5
X116 vdd.t121 vdd.t119 vdd.t120 vdd.t106 sky130_fd_pr__pfet_01v8 ad=3.51 pd=18.78 as=0 ps=0 w=9 l=0.5
X117 CSoutput.t155 a_n8964_8799.t70 vdd.t255 vdd.t158 sky130_fd_pr__pfet_01v8 ad=1.32 pd=8.33 as=1.32 ps=8.33 w=8 l=0.5
X118 vdd.t118 vdd.t115 vdd.t117 vdd.t116 sky130_fd_pr__pfet_01v8 ad=3.51 pd=18.78 as=0 ps=0 w=9 l=0.5
X119 gnd.t141 commonsourceibias.t83 CSoutput.t194 gnd.t45 sky130_fd_pr__nfet_01v8 ad=2.73 pd=14.78 as=1.155 ps=7.33 w=7 l=1
X120 CSoutput.t154 a_n8964_8799.t71 vdd.t254 vdd.t131 sky130_fd_pr__pfet_01v8 ad=1.32 pd=8.33 as=1.32 ps=8.33 w=8 l=0.5
X121 vdd.t253 a_n8964_8799.t72 CSoutput.t153 vdd.t250 sky130_fd_pr__pfet_01v8 ad=1.32 pd=8.33 as=1.32 ps=8.33 w=8 l=0.5
X122 vdd.t20 a_n2650_13878.t64 a_n2650_8322.t7 vdd.t19 sky130_fd_pr__pfet_01v8 ad=1.485 pd=9.33 as=1.485 ps=9.33 w=9 l=0.5
X123 gnd.t140 commonsourceibias.t32 commonsourceibias.t33 gnd.t30 sky130_fd_pr__nfet_01v8 ad=1.155 pd=7.33 as=1.155 ps=7.33 w=7 l=1
X124 a_n2650_13878.t39 a_n2650_13878.t38 a_n2472_13878.t12 vdd.t7 sky130_fd_pr__pfet_01v8 ad=1.485 pd=9.33 as=1.485 ps=9.33 w=9 l=0.5
X125 vdd.t114 vdd.t112 vdd.t113 vdd.t82 sky130_fd_pr__pfet_01v8 ad=3.12 pd=16.78 as=0 ps=0 w=8 l=0.5
X126 CSoutput.t29 commonsourceibias.t84 gnd.t139 gnd.t48 sky130_fd_pr__nfet_01v8 ad=1.155 pd=7.33 as=1.155 ps=7.33 w=7 l=1
X127 output.t18 CSoutput.t219 vdd.t27 gnd.t359 sky130_fd_pr__nfet_01v8 ad=0.825 pd=5.33 as=0.825 ps=5.33 w=5 l=1
X128 CSoutput.t30 commonsourceibias.t85 gnd.t138 gnd.t90 sky130_fd_pr__nfet_01v8 ad=1.155 pd=7.33 as=1.155 ps=7.33 w=7 l=1
X129 a_n2650_8322.t6 a_n2650_13878.t65 vdd.t22 vdd.t21 sky130_fd_pr__pfet_01v8 ad=1.485 pd=9.33 as=1.485 ps=9.33 w=9 l=0.5
X130 a_n3827_n3924.t24 diffpairibias.t23 gnd.t366 gnd.t365 sky130_fd_pr__nfet_01v8 ad=2.73 pd=14.78 as=2.73 ps=14.78 w=7 l=1
X131 CSoutput.t152 a_n8964_8799.t73 vdd.t252 vdd.t200 sky130_fd_pr__pfet_01v8 ad=1.32 pd=8.33 as=1.32 ps=8.33 w=8 l=0.5
X132 gnd.t137 commonsourceibias.t86 CSoutput.t52 gnd.t92 sky130_fd_pr__nfet_01v8 ad=1.155 pd=7.33 as=1.155 ps=7.33 w=7 l=1
X133 a_n2650_13878.t2 minus.t12 a_n3827_n3924.t6 gnd.t7 sky130_fd_pr__nfet_01v8 ad=1.155 pd=7.33 as=1.155 ps=7.33 w=7 l=0.5
X134 commonsourceibias.t31 commonsourceibias.t30 gnd.t136 gnd.t26 sky130_fd_pr__nfet_01v8 ad=1.155 pd=7.33 as=2.73 ps=14.78 w=7 l=1
X135 a_n3827_n3924.t0 plus.t10 a_n8964_8799.t0 gnd.t2 sky130_fd_pr__nfet_01v8 ad=1.155 pd=7.33 as=1.155 ps=7.33 w=7 l=0.5
X136 vdd.t46 a_n2650_13878.t66 a_n2472_13878.t26 vdd.t45 sky130_fd_pr__pfet_01v8 ad=1.485 pd=9.33 as=1.485 ps=9.33 w=9 l=0.5
X137 gnd.t135 commonsourceibias.t87 CSoutput.t53 gnd.t69 sky130_fd_pr__nfet_01v8 ad=1.155 pd=7.33 as=1.155 ps=7.33 w=7 l=1
X138 vdd.t111 vdd.t109 vdd.t110 vdd.t98 sky130_fd_pr__pfet_01v8 ad=3.12 pd=16.78 as=0 ps=0 w=8 l=0.5
X139 vdd.t108 vdd.t105 vdd.t107 vdd.t106 sky130_fd_pr__pfet_01v8 ad=3.51 pd=18.78 as=0 ps=0 w=9 l=0.5
X140 gnd.t127 commonsourceibias.t4 commonsourceibias.t5 gnd.t24 sky130_fd_pr__nfet_01v8 ad=1.155 pd=7.33 as=1.155 ps=7.33 w=7 l=1
X141 output.t17 CSoutput.t220 vdd.t28 gnd.t358 sky130_fd_pr__nfet_01v8 ad=0.825 pd=5.33 as=0.825 ps=5.33 w=5 l=1
X142 CSoutput.t0 commonsourceibias.t88 gnd.t134 gnd.t59 sky130_fd_pr__nfet_01v8 ad=1.155 pd=7.33 as=1.155 ps=7.33 w=7 l=1
X143 gnd.t133 commonsourceibias.t89 CSoutput.t1 gnd.t20 sky130_fd_pr__nfet_01v8 ad=1.155 pd=7.33 as=1.155 ps=7.33 w=7 l=1
X144 vdd.t251 a_n8964_8799.t74 CSoutput.t151 vdd.t250 sky130_fd_pr__pfet_01v8 ad=1.32 pd=8.33 as=1.32 ps=8.33 w=8 l=0.5
X145 vdd.t249 a_n8964_8799.t75 CSoutput.t150 vdd.t222 sky130_fd_pr__pfet_01v8 ad=1.32 pd=8.33 as=1.32 ps=8.33 w=8 l=0.5
X146 CSoutput.t3 commonsourceibias.t90 gnd.t132 gnd.t73 sky130_fd_pr__nfet_01v8 ad=1.155 pd=7.33 as=1.155 ps=7.33 w=7 l=1
X147 a_n8964_8799.t1 plus.t11 a_n3827_n3924.t1 gnd.t3 sky130_fd_pr__nfet_01v8 ad=1.155 pd=7.33 as=2.73 ps=14.78 w=7 l=0.5
X148 commonsourceibias.t9 commonsourceibias.t8 gnd.t131 gnd.t16 sky130_fd_pr__nfet_01v8 ad=1.155 pd=7.33 as=1.155 ps=7.33 w=7 l=1
X149 vdd.t104 vdd.t101 vdd.t103 vdd.t102 sky130_fd_pr__pfet_01v8 ad=3.51 pd=18.78 as=0 ps=0 w=9 l=0.5
X150 a_n2650_8322.t5 a_n2650_13878.t67 vdd.t48 vdd.t47 sky130_fd_pr__pfet_01v8 ad=3.51 pd=18.78 as=1.485 ps=9.33 w=9 l=0.5
X151 a_n8964_8799.t22 a_n2650_13878.t68 a_n2650_8322.t20 vdd.t39 sky130_fd_pr__pfet_01v8 ad=1.485 pd=9.33 as=1.485 ps=9.33 w=9 l=0.5
X152 gnd.t130 commonsourceibias.t91 CSoutput.t4 gnd.t43 sky130_fd_pr__nfet_01v8 ad=1.155 pd=7.33 as=1.155 ps=7.33 w=7 l=1
X153 gnd.t280 gnd.t278 gnd.t279 gnd.t220 sky130_fd_pr__nfet_01v8 ad=2.73 pd=14.78 as=0 ps=0 w=7 l=1
X154 CSoutput.t149 a_n8964_8799.t76 vdd.t248 vdd.t166 sky130_fd_pr__pfet_01v8 ad=1.32 pd=8.33 as=1.32 ps=8.33 w=8 l=0.5
X155 diffpairibias.t13 diffpairibias.t12 gnd.t325 gnd.t324 sky130_fd_pr__nfet_01v8 ad=2.73 pd=14.78 as=2.73 ps=14.78 w=7 l=1
X156 vdd.t247 a_n8964_8799.t77 CSoutput.t148 vdd.t246 sky130_fd_pr__pfet_01v8 ad=1.32 pd=8.33 as=1.32 ps=8.33 w=8 l=0.5
X157 a_n2650_13878.t25 a_n2650_13878.t24 a_n2472_13878.t11 vdd.t3 sky130_fd_pr__pfet_01v8 ad=1.485 pd=9.33 as=1.485 ps=9.33 w=9 l=0.5
X158 vdd.t245 a_n8964_8799.t78 CSoutput.t147 vdd.t156 sky130_fd_pr__pfet_01v8 ad=1.32 pd=8.33 as=1.32 ps=8.33 w=8 l=0.5
X159 a_n8964_8799.t23 a_n2650_13878.t69 a_n2650_8322.t19 vdd.t4 sky130_fd_pr__pfet_01v8 ad=1.485 pd=9.33 as=1.485 ps=9.33 w=9 l=0.5
X160 CSoutput.t146 a_n8964_8799.t79 vdd.t244 vdd.t243 sky130_fd_pr__pfet_01v8 ad=1.32 pd=8.33 as=1.32 ps=8.33 w=8 l=0.5
X161 CSoutput.t145 a_n8964_8799.t80 vdd.t232 vdd.t194 sky130_fd_pr__pfet_01v8 ad=1.32 pd=8.33 as=1.32 ps=8.33 w=8 l=0.5
X162 CSoutput.t144 a_n8964_8799.t81 vdd.t242 vdd.t209 sky130_fd_pr__pfet_01v8 ad=1.32 pd=8.33 as=1.32 ps=8.33 w=8 l=0.5
X163 gnd.t129 commonsourceibias.t6 commonsourceibias.t7 gnd.t20 sky130_fd_pr__nfet_01v8 ad=1.155 pd=7.33 as=1.155 ps=7.33 w=7 l=1
X164 a_n2472_13878.t10 a_n2650_13878.t28 a_n2650_13878.t29 vdd.t6 sky130_fd_pr__pfet_01v8 ad=1.485 pd=9.33 as=1.485 ps=9.33 w=9 l=0.5
X165 plus.t2 gnd.t275 gnd.t277 gnd.t276 sky130_fd_pr__nfet_01v8 ad=0.165 pd=1.33 as=0.165 ps=1.33 w=1 l=0.5
X166 gnd.t128 commonsourceibias.t92 CSoutput.t54 gnd.t41 sky130_fd_pr__nfet_01v8 ad=1.155 pd=7.33 as=1.155 ps=7.33 w=7 l=1
X167 vdd.t100 vdd.t97 vdd.t99 vdd.t98 sky130_fd_pr__pfet_01v8 ad=3.12 pd=16.78 as=0 ps=0 w=8 l=0.5
X168 output.t16 CSoutput.t221 vdd.t29 gnd.t357 sky130_fd_pr__nfet_01v8 ad=0.825 pd=5.33 as=0.825 ps=5.33 w=5 l=1
X169 vdd.t96 vdd.t94 vdd.t95 vdd.t68 sky130_fd_pr__pfet_01v8 ad=3.12 pd=16.78 as=0 ps=0 w=8 l=0.5
X170 gnd.t126 commonsourceibias.t93 CSoutput.t55 gnd.t30 sky130_fd_pr__nfet_01v8 ad=1.155 pd=7.33 as=1.155 ps=7.33 w=7 l=1
X171 gnd.t274 gnd.t272 minus.t3 gnd.t273 sky130_fd_pr__nfet_01v8 ad=0.165 pd=1.33 as=0.165 ps=1.33 w=1 l=0.5
X172 CSoutput.t143 a_n8964_8799.t82 vdd.t241 vdd.t228 sky130_fd_pr__pfet_01v8 ad=1.32 pd=8.33 as=1.32 ps=8.33 w=8 l=0.5
X173 a_n2650_13878.t47 minus.t13 a_n3827_n3924.t13 gnd.t9 sky130_fd_pr__nfet_01v8 ad=1.155 pd=7.33 as=1.155 ps=7.33 w=7 l=0.5
X174 vdd.t31 a_n2650_13878.t70 a_n2650_8322.t4 vdd.t30 sky130_fd_pr__pfet_01v8 ad=1.485 pd=9.33 as=3.51 ps=18.78 w=9 l=0.5
X175 a_n2472_13878.t9 a_n2650_13878.t42 a_n2650_13878.t43 vdd.t53 sky130_fd_pr__pfet_01v8 ad=1.485 pd=9.33 as=1.485 ps=9.33 w=9 l=0.5
X176 vdd.t240 a_n8964_8799.t83 CSoutput.t142 vdd.t224 sky130_fd_pr__pfet_01v8 ad=1.32 pd=8.33 as=1.32 ps=8.33 w=8 l=0.5
X177 gnd.t271 gnd.t269 gnd.t270 gnd.t220 sky130_fd_pr__nfet_01v8 ad=2.73 pd=14.78 as=0 ps=0 w=7 l=1
X178 vdd.t239 a_n8964_8799.t84 CSoutput.t141 vdd.t226 sky130_fd_pr__pfet_01v8 ad=3.12 pd=16.78 as=1.32 ps=8.33 w=8 l=0.5
X179 output.t2 outputibias.t9 gnd.t329 gnd.t328 sky130_fd_pr__nfet_01v8 ad=2.34 pd=12.78 as=2.34 ps=12.78 w=6 l=2
X180 vdd.t93 vdd.t91 vdd.t92 vdd.t82 sky130_fd_pr__pfet_01v8 ad=3.12 pd=16.78 as=0 ps=0 w=8 l=0.5
X181 a_n2650_13878.t41 a_n2650_13878.t40 a_n2472_13878.t8 vdd.t40 sky130_fd_pr__pfet_01v8 ad=1.485 pd=9.33 as=1.485 ps=9.33 w=9 l=0.5
X182 gnd.t268 gnd.t265 gnd.t267 gnd.t266 sky130_fd_pr__nfet_01v8 ad=1.95 pd=10.78 as=0 ps=0 w=5 l=1
X183 gnd.t264 gnd.t262 gnd.t263 gnd.t231 sky130_fd_pr__nfet_01v8 ad=2.73 pd=14.78 as=0 ps=0 w=7 l=1
X184 outputibias.t5 outputibias.t4 gnd.t1 gnd.t0 sky130_fd_pr__nfet_01v8 ad=2.34 pd=12.78 as=2.34 ps=12.78 w=6 l=2
X185 vdd.t297 CSoutput.t222 output.t15 gnd.t356 sky130_fd_pr__nfet_01v8 ad=0.825 pd=5.33 as=0.825 ps=5.33 w=5 l=1
X186 CSoutput.t67 commonsourceibias.t94 gnd.t125 gnd.t18 sky130_fd_pr__nfet_01v8 ad=1.155 pd=7.33 as=1.155 ps=7.33 w=7 l=1
X187 gnd.t124 commonsourceibias.t95 CSoutput.t68 gnd.t55 sky130_fd_pr__nfet_01v8 ad=1.155 pd=7.33 as=1.155 ps=7.33 w=7 l=1
X188 vdd.t238 a_n8964_8799.t85 CSoutput.t140 vdd.t168 sky130_fd_pr__pfet_01v8 ad=1.32 pd=8.33 as=1.32 ps=8.33 w=8 l=0.5
X189 gnd.t123 commonsourceibias.t96 CSoutput.t40 gnd.t53 sky130_fd_pr__nfet_01v8 ad=1.155 pd=7.33 as=1.155 ps=7.33 w=7 l=1
X190 a_n3827_n3924.t23 diffpairibias.t24 gnd.t314 gnd.t313 sky130_fd_pr__nfet_01v8 ad=2.73 pd=14.78 as=2.73 ps=14.78 w=7 l=1
X191 a_n3827_n3924.t22 diffpairibias.t25 gnd.t344 gnd.t343 sky130_fd_pr__nfet_01v8 ad=2.73 pd=14.78 as=2.73 ps=14.78 w=7 l=1
X192 outputibias.t3 outputibias.t2 gnd.t173 gnd.t172 sky130_fd_pr__nfet_01v8 ad=2.34 pd=12.78 as=2.34 ps=12.78 w=6 l=2
X193 a_n2650_13878.t46 minus.t14 a_n3827_n3924.t11 gnd.t181 sky130_fd_pr__nfet_01v8 ad=1.155 pd=7.33 as=1.155 ps=7.33 w=7 l=0.5
X194 vdd.t237 a_n8964_8799.t86 CSoutput.t139 vdd.t226 sky130_fd_pr__pfet_01v8 ad=3.12 pd=16.78 as=1.32 ps=8.33 w=8 l=0.5
X195 vdd.t236 a_n8964_8799.t87 CSoutput.t138 vdd.t215 sky130_fd_pr__pfet_01v8 ad=1.32 pd=8.33 as=1.32 ps=8.33 w=8 l=0.5
X196 CSoutput.t137 a_n8964_8799.t88 vdd.t235 vdd.t149 sky130_fd_pr__pfet_01v8 ad=1.32 pd=8.33 as=3.12 ps=16.78 w=8 l=0.5
X197 gnd.t261 gnd.t259 gnd.t260 gnd.t212 sky130_fd_pr__nfet_01v8 ad=2.73 pd=14.78 as=0 ps=0 w=7 l=1
X198 a_n2472_13878.t7 a_n2650_13878.t12 a_n2650_13878.t13 vdd.t43 sky130_fd_pr__pfet_01v8 ad=1.485 pd=9.33 as=1.485 ps=9.33 w=9 l=0.5
X199 vdd.t90 vdd.t88 vdd.t89 vdd.t60 sky130_fd_pr__pfet_01v8 ad=3.51 pd=18.78 as=0 ps=0 w=9 l=0.5
X200 gnd.t258 gnd.t256 gnd.t257 gnd.t212 sky130_fd_pr__nfet_01v8 ad=2.73 pd=14.78 as=0 ps=0 w=7 l=1
X201 a_n2650_8322.t18 a_n2650_13878.t71 a_n8964_8799.t16 vdd.t32 sky130_fd_pr__pfet_01v8 ad=1.485 pd=9.33 as=1.485 ps=9.33 w=9 l=0.5
X202 CSoutput.t136 a_n8964_8799.t89 vdd.t234 vdd.t209 sky130_fd_pr__pfet_01v8 ad=1.32 pd=8.33 as=1.32 ps=8.33 w=8 l=0.5
X203 CSoutput.t135 a_n8964_8799.t90 vdd.t233 vdd.t133 sky130_fd_pr__pfet_01v8 ad=1.32 pd=8.33 as=1.32 ps=8.33 w=8 l=0.5
X204 CSoutput.t134 a_n8964_8799.t91 vdd.t231 vdd.t230 sky130_fd_pr__pfet_01v8 ad=1.32 pd=8.33 as=3.12 ps=16.78 w=8 l=0.5
X205 vdd.t298 CSoutput.t223 output.t14 gnd.t355 sky130_fd_pr__nfet_01v8 ad=0.825 pd=5.33 as=0.825 ps=5.33 w=5 l=1
X206 a_n2650_13878.t53 minus.t15 a_n3827_n3924.t31 gnd.t317 sky130_fd_pr__nfet_01v8 ad=1.155 pd=7.33 as=1.155 ps=7.33 w=7 l=0.5
X207 CSoutput.t49 commonsourceibias.t97 gnd.t122 gnd.t105 sky130_fd_pr__nfet_01v8 ad=1.155 pd=7.33 as=1.155 ps=7.33 w=7 l=1
X208 output.t13 CSoutput.t224 vdd.t299 gnd.t354 sky130_fd_pr__nfet_01v8 ad=0.825 pd=5.33 as=0.825 ps=5.33 w=5 l=1
X209 gnd.t255 gnd.t253 gnd.t254 gnd.t208 sky130_fd_pr__nfet_01v8 ad=2.73 pd=14.78 as=0 ps=0 w=7 l=1
X210 gnd.t121 commonsourceibias.t98 CSoutput.t31 gnd.t69 sky130_fd_pr__nfet_01v8 ad=1.155 pd=7.33 as=1.155 ps=7.33 w=7 l=1
X211 diffpairibias.t11 diffpairibias.t10 gnd.t337 gnd.t336 sky130_fd_pr__nfet_01v8 ad=2.73 pd=14.78 as=2.73 ps=14.78 w=7 l=1
X212 a_n2472_13878.t25 a_n2650_13878.t72 vdd.t16 vdd.t15 sky130_fd_pr__pfet_01v8 ad=1.485 pd=9.33 as=1.485 ps=9.33 w=9 l=0.5
X213 vdd.t18 a_n2650_13878.t73 a_n2472_13878.t24 vdd.t17 sky130_fd_pr__pfet_01v8 ad=1.485 pd=9.33 as=1.485 ps=9.33 w=9 l=0.5
X214 CSoutput.t133 a_n8964_8799.t92 vdd.t229 vdd.t228 sky130_fd_pr__pfet_01v8 ad=1.32 pd=8.33 as=1.32 ps=8.33 w=8 l=0.5
X215 gnd.t120 commonsourceibias.t99 CSoutput.t207 gnd.t86 sky130_fd_pr__nfet_01v8 ad=1.155 pd=7.33 as=1.155 ps=7.33 w=7 l=1
X216 a_n3827_n3924.t36 plus.t12 a_n8964_8799.t27 gnd.t342 sky130_fd_pr__nfet_01v8 ad=1.155 pd=7.33 as=1.155 ps=7.33 w=7 l=0.5
X217 CSoutput.t41 commonsourceibias.t100 gnd.t118 gnd.t26 sky130_fd_pr__nfet_01v8 ad=1.155 pd=7.33 as=2.73 ps=14.78 w=7 l=1
X218 vdd.t227 a_n8964_8799.t93 CSoutput.t132 vdd.t226 sky130_fd_pr__pfet_01v8 ad=3.12 pd=16.78 as=1.32 ps=8.33 w=8 l=0.5
X219 vdd.t225 a_n8964_8799.t94 CSoutput.t131 vdd.t224 sky130_fd_pr__pfet_01v8 ad=1.32 pd=8.33 as=1.32 ps=8.33 w=8 l=0.5
X220 output.t12 CSoutput.t225 vdd.t300 gnd.t353 sky130_fd_pr__nfet_01v8 ad=0.825 pd=5.33 as=0.825 ps=5.33 w=5 l=1
X221 vdd.t223 a_n8964_8799.t95 CSoutput.t130 vdd.t222 sky130_fd_pr__pfet_01v8 ad=1.32 pd=8.33 as=1.32 ps=8.33 w=8 l=0.5
X222 CSoutput.t129 a_n8964_8799.t96 vdd.t221 vdd.t188 sky130_fd_pr__pfet_01v8 ad=1.32 pd=8.33 as=1.32 ps=8.33 w=8 l=0.5
X223 gnd.t252 gnd.t250 gnd.t251 gnd.t198 sky130_fd_pr__nfet_01v8 ad=2.73 pd=14.78 as=0 ps=0 w=7 l=0.5
X224 plus.t1 gnd.t247 gnd.t249 gnd.t248 sky130_fd_pr__nfet_01v8 ad=0.165 pd=1.33 as=0.165 ps=1.33 w=1 l=0.5
X225 a_n2472_13878.t6 a_n2650_13878.t34 a_n2650_13878.t35 vdd.t54 sky130_fd_pr__pfet_01v8 ad=1.485 pd=9.33 as=1.485 ps=9.33 w=9 l=0.5
X226 diffpairibias.t9 diffpairibias.t8 gnd.t178 gnd.t177 sky130_fd_pr__nfet_01v8 ad=2.73 pd=14.78 as=2.73 ps=14.78 w=7 l=1
X227 a_n3827_n3924.t34 plus.t13 a_n8964_8799.t21 gnd.t8 sky130_fd_pr__nfet_01v8 ad=1.155 pd=7.33 as=1.155 ps=7.33 w=7 l=0.5
X228 gnd.t117 commonsourceibias.t101 CSoutput.t210 gnd.t41 sky130_fd_pr__nfet_01v8 ad=1.155 pd=7.33 as=1.155 ps=7.33 w=7 l=1
X229 gnd.t246 gnd.t244 gnd.t245 gnd.t201 sky130_fd_pr__nfet_01v8 ad=2.73 pd=14.78 as=0 ps=0 w=7 l=0.5
X230 gnd.t243 gnd.t241 minus.t2 gnd.t242 sky130_fd_pr__nfet_01v8 ad=0.39 pd=2.78 as=0.165 ps=1.33 w=1 l=0.5
X231 vdd.t220 a_n8964_8799.t97 CSoutput.t128 vdd.t168 sky130_fd_pr__pfet_01v8 ad=1.32 pd=8.33 as=1.32 ps=8.33 w=8 l=0.5
X232 commonsourceibias.t55 commonsourceibias.t54 gnd.t116 gnd.t105 sky130_fd_pr__nfet_01v8 ad=1.155 pd=7.33 as=1.155 ps=7.33 w=7 l=1
X233 a_n2650_8322.t17 a_n2650_13878.t74 a_n8964_8799.t12 vdd.t12 sky130_fd_pr__pfet_01v8 ad=1.485 pd=9.33 as=1.485 ps=9.33 w=9 l=0.5
X234 CSoutput.t127 a_n8964_8799.t98 vdd.t219 vdd.t171 sky130_fd_pr__pfet_01v8 ad=1.32 pd=8.33 as=1.32 ps=8.33 w=8 l=0.5
X235 outputibias.t1 outputibias.t0 gnd.t364 gnd.t363 sky130_fd_pr__nfet_01v8 ad=2.34 pd=12.78 as=2.34 ps=12.78 w=6 l=2
X236 diffpairibias.t7 diffpairibias.t6 gnd.t331 gnd.t330 sky130_fd_pr__nfet_01v8 ad=2.73 pd=14.78 as=2.73 ps=14.78 w=7 l=1
X237 vdd.t218 a_n8964_8799.t99 CSoutput.t126 vdd.t217 sky130_fd_pr__pfet_01v8 ad=1.32 pd=8.33 as=1.32 ps=8.33 w=8 l=0.5
X238 a_n2472_13878.t5 a_n2650_13878.t22 a_n2650_13878.t23 vdd.t0 sky130_fd_pr__pfet_01v8 ad=1.485 pd=9.33 as=3.51 ps=18.78 w=9 l=0.5
X239 vdd.t14 a_n2650_13878.t75 a_n2650_8322.t3 vdd.t13 sky130_fd_pr__pfet_01v8 ad=1.485 pd=9.33 as=3.51 ps=18.78 w=9 l=0.5
X240 vdd.t216 a_n8964_8799.t100 CSoutput.t125 vdd.t215 sky130_fd_pr__pfet_01v8 ad=1.32 pd=8.33 as=1.32 ps=8.33 w=8 l=0.5
X241 output.t1 outputibias.t10 gnd.t188 gnd.t187 sky130_fd_pr__nfet_01v8 ad=2.34 pd=12.78 as=2.34 ps=12.78 w=6 l=2
X242 CSoutput.t50 commonsourceibias.t102 gnd.t115 gnd.t22 sky130_fd_pr__nfet_01v8 ad=1.155 pd=7.33 as=1.155 ps=7.33 w=7 l=1
X243 CSoutput.t226 a_n2650_8322.t31 sky130_fd_pr__cap_mim_m3_1 l=12 w=12
X244 commonsourceibias.t53 commonsourceibias.t52 gnd.t114 gnd.t77 sky130_fd_pr__nfet_01v8 ad=1.155 pd=7.33 as=1.155 ps=7.33 w=7 l=1
X245 CSoutput.t124 a_n8964_8799.t101 vdd.t214 vdd.t196 sky130_fd_pr__pfet_01v8 ad=1.32 pd=8.33 as=1.32 ps=8.33 w=8 l=0.5
X246 gnd.t240 gnd.t237 gnd.t239 gnd.t238 sky130_fd_pr__nfet_01v8 ad=2.73 pd=14.78 as=0 ps=0 w=7 l=1
X247 a_n2472_13878.t23 a_n2650_13878.t76 vdd.t2 vdd.t1 sky130_fd_pr__pfet_01v8 ad=3.51 pd=18.78 as=1.485 ps=9.33 w=9 l=0.5
X248 vdd.t87 vdd.t85 vdd.t86 vdd.t68 sky130_fd_pr__pfet_01v8 ad=3.12 pd=16.78 as=0 ps=0 w=8 l=0.5